data_md_50K_RHO_i43m_Ca_92_Al_in_222_catlow                                          

_audit_creation_method             'generated by GULP'

_symmetry_space_group_name_H-M     'P 1'
_symmetry_Int_Tables_number        1
_symmetry_cell_setting             triclinic

_cell_length_a                      30.0
_cell_length_b                      30.0
_cell_length_c                      30.0
_cell_angle_alpha                   90.0
_cell_angle_beta                    90.0
_cell_angle_gamma                   90.0

loop_
_atom_site_label
_atom_site_fract_x
_atom_site_fract_y
_atom_site_fract_z
_atom_site_occupancy
  Si          0.96669      0.81092      0.38762  1.0000
  Si          0.68702      0.53142      0.38819  1.0000
  Si          0.53458      0.80729      0.10897  1.0000
  Si          0.56316      0.86377      0.78501  1.0000
  Si          0.86597      0.93599      0.70734  1.0000
  Si          0.93966      0.63165      0.78823  1.0000
  Si          0.63846      0.93843      0.78115  1.0000
  Si          0.93996      0.86151      0.70583  1.0000
  Si          0.56162      0.63910      0.71599  1.0000
  Si          0.71426      0.63397      0.56025  1.0000
  Si          0.63853      0.78524      0.93951  1.0000
  Si          0.78812      0.86027      0.55968  1.0000
  Si          0.86318      0.71061      0.93323  1.0000
  Si          0.38826      0.03499      0.18774  1.0000
  Si          0.71174      0.86308      0.93727  1.0000
  Si          0.86222      0.78381      0.55840  1.0000
  Si          0.78618      0.63515      0.93392  1.0000
  Si          0.56070      0.71047      0.63870  1.0000
  Si          0.56566      0.78666      0.86333  1.0000
  Si          0.78923      0.93675      0.63183  1.0000
  Si          0.94055      0.71040      0.86003  1.0000
  Si          0.71851      0.56151      0.63805  1.0000
  Si          0.93791      0.78241      0.63211  1.0000
  Si          0.78684      0.55755      0.86132  1.0000
  Si          0.81095      0.61113      0.53172  1.0000
  Si          0.61246      0.68773      0.96469  1.0000
  Si          0.04042      0.11178      0.31046  1.0000
  Si          0.88429      0.68600      0.53222  1.0000
  Si          0.61495      0.80863      0.53935  1.0000
  Si          0.81350      0.88442      0.95953  1.0000
  Si          0.88588      0.53401      0.68549  1.0000
  Si          0.53949      0.61185      0.81440  1.0000
  Si          0.61402      0.96464      0.68552  1.0000
  Si          0.96281      0.60781      0.68769  1.0000
  Si          0.61522      0.53559      0.80981  1.0000
  Si          0.11148      0.46533      0.18330  1.0000
  Si          0.89074      0.96058      0.80967  1.0000
  Si          0.81275      0.95640      0.88062  1.0000
  Si          0.69092      0.96497      0.61183  1.0000
  Si          0.96449      0.80631      0.88355  1.0000
  Si          0.68707      0.53297      0.88795  1.0000
  Si          0.53660      0.80818      0.61200  1.0000
  Si          0.46366      0.10999      0.18892  1.0000
  Si          0.11612      0.03627      0.30828  1.0000
  Si          0.38873      0.46130      0.30744  1.0000
  Si          0.31381      0.45984      0.38045  1.0000
  Si          0.44125      0.13634      0.28777  1.0000
  Si          0.19057      0.46239      0.11207  1.0000
  Si          0.46659      0.31058      0.38502  1.0000
  Si          0.18800      0.03376      0.38650  1.0000
  Si          0.03629      0.30780      0.11038  1.0000
  Si          0.06413      0.36433      0.78487  1.0000
  Si          0.36449      0.43721      0.71151  1.0000
  Si          0.44057      0.13753      0.78681  1.0000
  Si          0.13850      0.43911      0.78170  1.0000
  Si          0.44009      0.36324      0.71112  1.0000
  Si          0.13775      0.44100      0.28236  1.0000
  Si          0.06240      0.13531      0.70779  1.0000
  Si          0.21448      0.13501      0.56019  1.0000
  Si          0.13776      0.28506      0.93868  1.0000
  Si          0.28925      0.36209      0.55822  1.0000
  Si          0.36312      0.21336      0.93317  1.0000
  Si          0.21118      0.36420      0.93729  1.0000
  Si          0.36634      0.28845      0.55909  1.0000
  Si          0.28827      0.13557      0.93326  1.0000
  Si          0.13954      0.21160      0.56242  1.0000
  Si          0.43935      0.36228      0.21105  1.0000
  Si          0.06015      0.21012      0.63225  1.0000
  Si          0.06544      0.28594      0.86092  1.0000
  Si          0.29135      0.43724      0.63064  1.0000
  Si          0.44130      0.21399      0.86097  1.0000
  Si          0.21842      0.06045      0.63551  1.0000
  Si          0.43862      0.28590      0.63388  1.0000
  Si          0.28682      0.05912      0.85988  1.0000
  Si          0.31307      0.11482      0.53402  1.0000
  Si          0.11394      0.18742      0.96217  1.0000
  Si          0.38816      0.18946      0.53382  1.0000
  Si          0.11569      0.30964      0.53836  1.0000
  Si          0.31190      0.38582      0.95967  1.0000
  Si          0.38835      0.03585      0.68720  1.0000
  Si          0.03979      0.11165      0.81040  1.0000
  Si          0.11277      0.46376      0.68408  1.0000
  Si          0.06256      0.13649      0.21030  1.0000
  Si          0.46322      0.11133      0.68880  1.0000
  Si          0.11595      0.03758      0.80969  1.0000
  Si          0.38819      0.46080      0.80860  1.0000
  Si          0.31273      0.45853      0.88098  1.0000
  Si          0.19154      0.46170      0.61195  1.0000
  Si          0.46570      0.31053      0.88493  1.0000
  Si          0.18855      0.03369      0.88704  1.0000
  Si          0.03560      0.30815      0.60866  1.0000
  Si          0.21488      0.13537      0.06016  1.0000
  Si          0.06498      0.86506      0.28347  1.0000
  Si          0.36483      0.93618      0.21089  1.0000
  Si          0.44087      0.63470      0.28645  1.0000
  Si          0.13840      0.93967      0.28194  1.0000
  Si          0.43850      0.86115      0.21099  1.0000
  Si          0.06080      0.63555      0.21188  1.0000
  Si          0.21548      0.63315      0.06009  1.0000
  Si          0.13839      0.78485      0.43795  1.0000
  Si          0.28845      0.86168      0.05842  1.0000
  Si          0.36611      0.71167      0.43412  1.0000
  Si          0.13824      0.28702      0.43820  1.0000
  Si          0.21212      0.86304      0.43565  1.0000
  Si          0.36440      0.78587      0.05918  1.0000
  Si          0.28870      0.63631      0.43324  1.0000
  Si          0.05918      0.70979      0.13626  1.0000
  Si          0.06386      0.78790      0.36208  1.0000
  Si          0.29071      0.93763      0.13124  1.0000
  Si          0.44291      0.71115      0.36030  1.0000
  Si          0.21957      0.56071      0.13761  1.0000
  Si          0.43694      0.78371      0.13404  1.0000
  Si          0.28817      0.55801      0.36113  1.0000
  Si          0.31311      0.61124      0.03182  1.0000
  Si          0.11348      0.68783      0.46181  1.0000
  Si          0.28820      0.36055      0.05862  1.0000
  Si          0.38526      0.68868      0.03235  1.0000
  Si          0.11552      0.80687      0.03849  1.0000
  Si          0.31240      0.88436      0.45936  1.0000
  Si          0.38807      0.53470      0.18557  1.0000
  Si          0.04077      0.61381      0.31163  1.0000
  Si          0.11285      0.96431      0.18340  1.0000
  Si          0.46325      0.60939      0.18613  1.0000
  Si          0.11631      0.53736      0.30942  1.0000
  Si          0.36490      0.21224      0.43316  1.0000
  Si          0.38944      0.96023      0.30895  1.0000
  Si          0.31344      0.95886      0.38157  1.0000
  Si          0.19138      0.96290      0.11129  1.0000
  Si          0.46654      0.80851      0.38560  1.0000
  Si          0.18821      0.53253      0.38757  1.0000
  Si          0.03674      0.80574      0.11151  1.0000
  Si          0.06416      0.86379      0.78729  1.0000
  Si          0.36528      0.93749      0.71096  1.0000
  Si          0.44133      0.63477      0.79146  1.0000
  Si          0.13559      0.93957      0.78335  1.0000
  Si          0.21175      0.36472      0.43477  1.0000
  Si          0.43902      0.86280      0.71193  1.0000
  Si          0.06084      0.63442      0.71025  1.0000
  Si          0.21408      0.63433      0.55974  1.0000
  Si          0.13620      0.78611      0.93971  1.0000
  Si          0.28960      0.85996      0.56009  1.0000
  Si          0.36076      0.71389      0.93196  1.0000
  Si          0.21127      0.86339      0.93601  1.0000
  Si          0.36678      0.28782      0.05851  1.0000
  Si          0.36648      0.78639      0.55950  1.0000
  Si          0.28750      0.63456      0.93249  1.0000
  Si          0.13672      0.70905      0.56154  1.0000
  Si          0.05855      0.70644      0.63226  1.0000
  Si          0.06473      0.78613      0.86212  1.0000
  Si          0.29217      0.93699      0.63119  1.0000
  Si          0.44182      0.71347      0.86395  1.0000
  Si          0.21836      0.56099      0.63668  1.0000
  Si          0.43913      0.78465      0.63505  1.0000
  Si          0.06503      0.36503      0.28362  1.0000
  Si          0.28630      0.55755      0.86061  1.0000
  Si          0.31158      0.61424      0.53368  1.0000
  Si          0.28822      0.13596      0.43345  1.0000
  Si          0.11187      0.68716      0.96297  1.0000
  Si          0.38860      0.68712      0.53421  1.0000
  Si          0.11356      0.80787      0.53695  1.0000
  Si          0.31151      0.88547      0.95771  1.0000
  Si          0.38849      0.53637      0.68824  1.0000
  Si          0.13785      0.20967      0.06226  1.0000
  Si          0.03945      0.61044      0.81100  1.0000
  Si          0.11088      0.96423      0.68096  1.0000
  Si          0.46343      0.61185      0.69172  1.0000
  Si          0.11510      0.53519      0.80867  1.0000
  Si          0.38972      0.96288      0.80970  1.0000
  Si          0.31212      0.95978      0.88096  1.0000
  Si          0.19224      0.96230      0.61039  1.0000
  Si          0.46701      0.80950      0.88732  1.0000
  Si          0.06035      0.21051      0.13402  1.0000
  Si          0.18678      0.53201      0.88701  1.0000
  Si          0.03609      0.80544      0.60799  1.0000
  Si          0.56559      0.36454      0.28423  1.0000
  Si          0.86229      0.43619      0.21114  1.0000
  Si          0.94063      0.13251      0.28705  1.0000
  Si          0.06632      0.28758      0.36073  1.0000
  Si          0.63935      0.44053      0.28187  1.0000
  Si          0.93888      0.36377      0.21017  1.0000
  Si          0.56206      0.13504      0.21147  1.0000
  Si          0.71389      0.12739      0.06116  1.0000
  Si          0.63799      0.28727      0.44028  1.0000
  Si          0.28993      0.43563      0.13121  1.0000
  Si          0.78756      0.36120      0.05898  1.0000
  Si          0.86071      0.21365      0.42961  1.0000
  Si          0.71310      0.36415      0.43680  1.0000
  Si          0.86377      0.28493      0.05896  1.0000
  Si          0.78671      0.13504      0.42994  1.0000
  Si          0.44266      0.21379      0.36054  1.0000
  Si          0.56073      0.20925      0.13518  1.0000
  Si          0.56624      0.28800      0.36229  1.0000
  Si          0.79020      0.43593      0.13038  1.0000
  Si          0.94181      0.21120      0.36058  1.0000
  Si          0.72053      0.05652      0.13885  1.0000
  Si          0.93744      0.28411      0.13402  1.0000
  Si          0.78670      0.05622      0.35991  1.0000
  Si          0.21881      0.06117      0.13613  1.0000
  Si          0.81455      0.10970      0.03671  1.0000
  Si          0.61271      0.18894      0.46343  1.0000
  Si          0.88460      0.18785      0.03568  1.0000
  Si          0.43741      0.28433      0.13472  1.0000
  Si          0.61582      0.30570      0.03879  1.0000
  Si          0.81392      0.38591      0.45855  1.0000
  Si          0.88986      0.03289      0.18655  1.0000
  Si          0.54067      0.11327      0.31121  1.0000
  Si          0.61272      0.46383      0.18368  1.0000
  Si          0.28773      0.05794      0.36124  1.0000
  Si          0.96425      0.10903      0.18727  1.0000
  Si          0.61431      0.03510      0.30847  1.0000
  Si          0.88746      0.46085      0.30751  1.0000
  Si          0.81396      0.46008      0.38240  1.0000
  Si          0.69030      0.46184      0.11070  1.0000
  Si          0.96661      0.30810      0.38351  1.0000
  Si          0.68624      0.03205      0.38664  1.0000
  Si          0.53597      0.30580      0.11087  1.0000
  Si          0.56479      0.36432      0.78461  1.0000
  Si          0.86328      0.43490      0.71046  1.0000
  Si          0.94102      0.13380      0.78551  1.0000
  Si          0.63770      0.44024      0.78292  1.0000
  Si          0.93879      0.36186      0.71061  1.0000
  Si          0.56091      0.13529      0.71117  1.0000
  Si          0.71573      0.13494      0.55794  1.0000
  Si          0.63711      0.28476      0.93900  1.0000
  Si          0.78881      0.36164      0.55747  1.0000
  Si          0.86179      0.21088      0.93315  1.0000
  Si          0.71136      0.36231      0.93554  1.0000
  Si          0.86468      0.28575      0.55735  1.0000
  Si          0.31306      0.11449      0.03338  1.0000
  Si          0.78673      0.13346      0.93709  1.0000
  Si          0.56027      0.21145      0.63725  1.0000
  Si          0.56398      0.28751      0.86306  1.0000
  Si          0.78849      0.43576      0.63182  1.0000
  Si          0.94185      0.21025      0.86097  1.0000
  Si          0.71875      0.06433      0.63674  1.0000
  Si          0.93767      0.28541      0.63218  1.0000
  Si          0.78538      0.05613      0.86088  1.0000
  Si          0.81335      0.11093      0.52878  1.0000
  Si          0.61169      0.18773      0.96390  1.0000
  Si          0.88557      0.18859      0.53034  1.0000
  Si          0.11277      0.18872      0.46307  1.0000
  Si          0.61592      0.30937      0.53840  1.0000
  Si          0.81099      0.38492      0.95904  1.0000
  Si          0.88784      0.03656      0.68218  1.0000
  Si          0.53903      0.11111      0.81183  1.0000
  Si          0.61156      0.46571      0.68494  1.0000
  Si          0.96377      0.10912      0.68282  1.0000
  Si          0.61414      0.03602      0.80875  1.0000
  Si          0.88725      0.45984      0.80785  1.0000
  Si          0.81325      0.45956      0.88236  1.0000
  Si          0.69053      0.46232      0.61329  1.0000
  Si          0.96583      0.30886      0.88682  1.0000
  Si          0.68564      0.03002      0.88855  1.0000
  Si          0.53730      0.30747      0.61192  1.0000
  Si          0.56546      0.86165      0.28419  1.0000
  Si          0.86526      0.93436      0.21222  1.0000
  Si          0.94034      0.63562      0.28876  1.0000
  Si          0.63692      0.93946      0.28366  1.0000
  Si          0.94107      0.86033      0.21099  1.0000
  Si          0.38848      0.18893      0.03224  1.0000
  Si          0.56145      0.63603      0.20939  1.0000
  Si          0.71362      0.63335      0.06176  1.0000
  Si          0.63681      0.78439      0.44299  1.0000
  Si          0.36414      0.43564      0.21045  1.0000
  Si          0.78957      0.85877      0.05826  1.0000
  Si          0.86100      0.71313      0.43364  1.0000
  Si          0.71072      0.86302      0.43821  1.0000
  Si          0.86694      0.78552      0.05846  1.0000
  Si          0.78617      0.63675      0.43204  1.0000
  Si          0.63862      0.70978      0.06420  1.0000
  Si          0.55946      0.71058      0.13368  1.0000
  Si          0.56545      0.78638      0.36432  1.0000
  Si          0.79189      0.93243      0.13170  1.0000
  Si          0.94083      0.71178      0.36324  1.0000
  Si          0.71916      0.55971      0.13783  1.0000
  Si          0.93821      0.78317      0.13395  1.0000
  Si          0.78704      0.55771      0.36160  1.0000
  Si          0.81196      0.61229      0.03354  1.0000
  Si          0.61080      0.68665      0.46595  1.0000
  Si          0.11235      0.30799      0.03665  1.0000
  Si          0.88792      0.68638      0.03285  1.0000
  Si          0.61367      0.80768      0.03877  1.0000
  Si          0.81149      0.88455      0.45944  1.0000
  Si          0.88702      0.53513      0.18686  1.0000
  Si          0.54058      0.61268      0.30954  1.0000
  Si          0.61273      0.96216      0.18516  1.0000
  Si          0.31275      0.38566      0.45818  1.0000
  Si          0.96411      0.60823      0.18969  1.0000
  Si          0.61688      0.53650      0.30886  1.0000
  Si          0.88724      0.96001      0.30875  1.0000
  Si          0.81243      0.95864      0.38263  1.0000
  Si          0.69201      0.95774      0.11435  1.0000
  Al          0.13903      0.06357      0.20975  1.0000
  Al          0.96025      0.68311      0.11342  1.0000
  Al          0.63621      0.56413      0.71030  1.0000
  Al          0.46435      0.38392      0.30879  1.0000
  Al          0.86124      0.55938      0.78362  1.0000
  Al          0.63600      0.70953      0.56453  1.0000
  Al          0.71270      0.93361      0.86012  1.0000
  Al          0.88771      0.80849      0.95913  1.0000
  Al          0.68700      0.88498      0.53878  1.0000
  Al          0.68632      0.61290      0.96166  1.0000
  Al          0.96156      0.88100      0.80877  1.0000
  Al          0.53845      0.88429      0.68582  1.0000
  Al          0.81525      0.53450      0.60768  1.0000
  Al          0.54039      0.68870      0.88680  1.0000
  Al          0.96004      0.68129      0.61036  1.0000
  Al          0.03891      0.38487      0.18475  1.0000
  Al          0.31775      0.03585      0.10875  1.0000
  Al          0.04200      0.18868      0.38390  1.0000
  Al          0.45969      0.18495      0.11326  1.0000
  Al          0.13838      0.06255      0.70793  1.0000
  Al          0.36576      0.06248      0.78678  1.0000
  Al          0.21362      0.43455      0.85911  1.0000
  Al          0.38709      0.31110      0.95928  1.0000
  Al          0.18837      0.38643      0.53594  1.0000
  Al          0.36617      0.06080      0.28726  1.0000
  Al          0.18806      0.11243      0.96075  1.0000
  Al          0.46511      0.38401      0.80904  1.0000
  Al          0.03842      0.38368      0.68499  1.0000
  Al          0.31819      0.03601      0.60827  1.0000
  Al          0.04141      0.18772      0.88408  1.0000
  Al          0.46096      0.18627      0.61368  1.0000
  Al          0.13775      0.56377      0.20929  1.0000
  Al          0.36359      0.56165      0.28416  1.0000
  Al          0.13688      0.70842      0.06410  1.0000
  Al          0.21428      0.93595      0.35839  1.0000
  Al          0.38818      0.81057      0.46002  1.0000
  Al          0.18758      0.88386      0.03728  1.0000
  Al          0.18910      0.61468      0.45895  1.0000
  Al          0.46360      0.88102      0.30873  1.0000
  Al          0.04071      0.88306      0.18383  1.0000
  Al          0.31717      0.53388      0.10771  1.0000
  Al          0.03950      0.68880      0.38475  1.0000
  Al          0.46007      0.68456      0.11076  1.0000
  Al          0.13803      0.56262      0.71022  1.0000
  Al          0.36537      0.56140      0.78828  1.0000
  Al          0.21268      0.93520      0.85836  1.0000
  Al          0.38633      0.81077      0.95849  1.0000
  Al          0.18853      0.88265      0.53824  1.0000
  Al          0.18724      0.61140      0.96064  1.0000
  Al          0.46309      0.88342      0.81080  1.0000
  Al          0.04250      0.88139      0.68300  1.0000
  Al          0.31709      0.53662      0.60951  1.0000
  Al          0.03951      0.68644      0.88464  1.0000
  Al          0.46199      0.68364      0.61402  1.0000
  Al          0.63779      0.06085      0.20877  1.0000
  Al          0.86299      0.05969      0.28462  1.0000
  Al          0.63969      0.20862      0.06399  1.0000
  Al          0.71371      0.43490      0.35986  1.0000
  Al          0.88648      0.30948      0.45651  1.0000
  Al          0.68678      0.38289      0.03765  1.0000
  Al          0.68709      0.11313      0.45894  1.0000
  Al          0.96415      0.38316      0.30826  1.0000
  Al          0.53928      0.38224      0.18502  1.0000
  Al          0.81908      0.03072      0.10841  1.0000
  Al          0.54060      0.18912      0.38430  1.0000
  Al          0.21398      0.43668      0.35814  1.0000
  Al          0.96069      0.18537      0.11278  1.0000
  Al          0.63918      0.06498      0.71049  1.0000
  Al          0.38871      0.31107      0.45920  1.0000
  Al          0.86325      0.05908      0.78444  1.0000
  Al          0.63767      0.21018      0.56392  1.0000
  Al          0.71301      0.43573      0.86020  1.0000
  Al          0.88644      0.30947      0.95857  1.0000
  Al          0.68768      0.38666      0.53567  1.0000
  Al          0.68573      0.11020      0.96228  1.0000
  Al          0.96238      0.38177      0.80912  1.0000
  Al          0.53962      0.38375      0.68538  1.0000
  Al          0.18725      0.38383      0.03813  1.0000
  Al          0.81571      0.03599      0.60520  1.0000
  Al          0.53868      0.18745      0.88535  1.0000
  Al          0.96013      0.18608      0.60863  1.0000
  Al          0.63747      0.56204      0.20930  1.0000
  Al          0.86353      0.56147      0.28558  1.0000
  Al          0.18744      0.11340      0.46004  1.0000
  Al          0.71224      0.93464      0.36143  1.0000
  Al          0.88661      0.81112      0.46003  1.0000
  Al          0.68817      0.88275      0.03770  1.0000
  Al          0.68669      0.61358      0.45961  1.0000
  Al          0.96493      0.88289      0.30880  1.0000
  Al          0.53941      0.88039      0.18601  1.0000
  Al          0.81717      0.53473      0.10844  1.0000
  Al          0.54044      0.68666      0.38497  1.0000
  O           0.40065      0.47861      0.19682  1.0000
  O           0.30552      0.43487      0.43169  1.0000
  O           0.73531      0.93583      0.14356  1.0000
  O           0.95465      0.76613      0.34935  1.0000
  O           0.73081      0.54898      0.35324  1.0000
  O           0.55274      0.76567      0.14432  1.0000
  O           0.94034      0.72976      0.14612  1.0000
  O           0.60120      0.51938      0.69019  1.0000
  O           0.60970      0.61635      0.70363  1.0000
  O           0.69368      0.55828      0.68902  1.0000
  O           0.52184      0.89934      0.79879  1.0000
  O           0.61204      0.88958      0.79259  1.0000
  O           0.56004      0.81445      0.81401  1.0000
  O           0.90128      0.97951      0.68876  1.0000
  O           0.89364      0.89014      0.69119  1.0000
  O           0.44546      0.34727      0.26375  1.0000
  O           0.81633      0.93842      0.68323  1.0000
  O           0.98278      0.60054      0.80742  1.0000
  O           0.89108      0.60916      0.79737  1.0000
  O           0.94256      0.68605      0.80709  1.0000
  O           0.60031      0.98143      0.79495  1.0000
  O           0.68387      0.94326      0.80975  1.0000
  O           0.98203      0.89539      0.68679  1.0000
  O           0.45422      0.35810      0.36142  1.0000
  O           0.94127      0.80928      0.68356  1.0000
  O           0.89540      0.51364      0.80122  1.0000
  O           0.80395      0.55690      0.80748  1.0000
  O           0.51947      0.60413      0.69792  1.0000
  O           0.55553      0.69202      0.69534  1.0000
  O           0.69792      0.59841      0.51918  1.0000
  O           0.70472      0.60802      0.61027  1.0000
  O           0.43897      0.43812      0.29846  1.0000
  O           0.69246      0.68509      0.55913  1.0000
  O           0.60629      0.80310      0.98213  1.0000
  O           0.61416      0.79879      0.89088  1.0000
  O           0.69174      0.80752      0.94365  1.0000
  O           0.80698      0.89199      0.51642  1.0000
  O           0.79980      0.88644      0.60805  1.0000
  O           0.80911      0.80700      0.56062  1.0000
  O           0.89503      0.69098      0.97592  1.0000
  O           0.88912      0.70388      0.88381  1.0000
  O           0.81099      0.68695      0.93188  1.0000
  O           0.69301      0.89531      0.97834  1.0000
  O           0.70191      0.88115      0.88718  1.0000
  O           0.89235      0.80858      0.52044  1.0000
  O           0.88744      0.78927      0.60977  1.0000
  O           0.35102      0.05116      0.22783  1.0000
  O           0.80820      0.60654      0.97684  1.0000
  O           0.79723      0.60636      0.88643  1.0000
  O           0.60256      0.68737      0.52079  1.0000
  O           0.61179      0.70563      0.61947  1.0000
  O           0.52198      0.68549      0.60962  1.0000
  O           0.52290      0.80124      0.89816  1.0000
  O           0.36931      0.04443      0.13756  1.0000
  O           0.80768      0.97671      0.59938  1.0000
  O           0.97943      0.69012      0.89271  1.0000
  O           0.69916      0.51788      0.60383  1.0000
  O           0.97946      0.80385      0.60024  1.0000
  O           0.80957      0.51622      0.89182  1.0000
  O           0.44020      0.05807      0.19807  1.0000
  O           0.69698      0.97746      0.90020  1.0000
  O           0.84667      0.76271      0.94511  1.0000
  O           0.85858      0.85794      0.94478  1.0000
  O           0.93876      0.79528      0.93116  1.0000
  O           0.76949      0.64494      0.55203  1.0000
  O           0.85827      0.63754      0.54593  1.0000
  O           0.80533      0.56055      0.55392  1.0000
  O           0.64811      0.73044      0.94619  1.0000
  O           0.63552      0.64120      0.94887  1.0000
  O           0.56075      0.69686      0.94445  1.0000
  O           0.73390      0.84809      0.55260  1.0000
  O           0.63616      0.85760      0.55213  1.0000
  O           0.69125      0.94294      0.55922  1.0000
  O           0.84947      0.72953      0.54860  1.0000
  O           0.93113      0.68989      0.55980  1.0000
  O           0.38999      0.38754      0.19871  1.0000
  O           0.05448      0.14521      0.26604  1.0000
  O           0.73288      0.64670      0.94072  1.0000
  O           0.68975      0.55656      0.93856  1.0000
  O           0.65312      0.76775      0.55063  1.0000
  O           0.56673      0.79548      0.56638  1.0000
  O           0.76776      0.84947      0.94646  1.0000
  O           0.80870      0.93436      0.93344  1.0000
  O           0.05243      0.13712      0.35737  1.0000
  O           0.94513      0.85112      0.75973  1.0000
  O           0.95031      0.85323      0.85941  1.0000
  O           0.94380      0.94003      0.81168  1.0000
  O           0.85044      0.55173      0.72445  1.0000
  O           0.86906      0.54103      0.63420  1.0000
  O           0.93965      0.55580      0.69711  1.0000
  O           0.55459      0.64707      0.77195  1.0000
  O           0.55065      0.63562      0.86228  1.0000
  O           0.06501      0.06127      0.30555  1.0000
  O           0.56579      0.56205      0.80581  1.0000
  O           0.64808      0.94282      0.72607  1.0000
  O           0.64136      0.95354      0.63663  1.0000
  O           0.56405      0.93865      0.69345  1.0000
  O           0.94971      0.64353      0.73237  1.0000
  O           0.94552      0.63296      0.64314  1.0000
  O           0.65165      0.55138      0.76936  1.0000
  O           0.63939      0.54320      0.86034  1.0000
  O           0.55343      0.84500      0.73266  1.0000
  O           0.54965      0.85556      0.63542  1.0000
  O           0.86407      0.93994      0.76333  1.0000
  O           0.86288      0.94466      0.85604  1.0000
  O           0.77183      0.93946      0.84923  1.0000
  O           0.14401      0.44697      0.22647  1.0000
  O           0.77214      0.55341      0.64714  1.0000
  O           0.56131      0.73332      0.85095  1.0000
  O           0.73332      0.94063      0.64116  1.0000
  O           0.95098      0.76393      0.84530  1.0000
  O           0.73037      0.54968      0.85286  1.0000
  O           0.14142      0.45020      0.13690  1.0000
  O           0.54656      0.76569      0.65153  1.0000
  O           0.94852      0.73013      0.64965  1.0000
  O           0.06049      0.44140      0.18598  1.0000
  O           0.44833      0.14398      0.23171  1.0000
  O           0.45056      0.13301      0.14110  1.0000
  O           0.31541      0.43966      0.18226  1.0000
  O           0.15045      0.05560      0.26903  1.0000
  O           0.13974      0.04288      0.35960  1.0000
  O           0.05964      0.35065      0.23001  1.0000
  O           0.04331      0.35641      0.13244  1.0000
  O           0.35302      0.44208      0.26529  1.0000
  O           0.36366      0.44719      0.35700  1.0000
  O           0.27232      0.44718      0.34663  1.0000
  O           0.27259      0.05165      0.14863  1.0000
  O           0.06223      0.23406      0.34955  1.0000
  O           0.23332      0.43955      0.14161  1.0000
  O           0.45257      0.26784      0.34816  1.0000
  O           0.48489      0.10411      0.30611  1.0000
  O           0.23143      0.05352      0.35437  1.0000
  O           0.05581      0.26673      0.14378  1.0000
  O           0.43920      0.23087      0.14662  1.0000
  O           0.10330      0.01824      0.68649  1.0000
  O           0.11059      0.11385      0.69564  1.0000
  O           0.19580      0.05886      0.68764  1.0000
  O           0.39376      0.11167      0.29931  1.0000
  O           0.02124      0.39512      0.79978  1.0000
  O           0.11313      0.38962      0.79304  1.0000
  O           0.06460      0.31201      0.80974  1.0000
  O           0.40105      0.48001      0.69768  1.0000
  O           0.38988      0.38812      0.70270  1.0000
  O           0.31657      0.44240      0.68211  1.0000
  O           0.48230      0.10462      0.80679  1.0000
  O           0.39192      0.11465      0.79750  1.0000
  O           0.44535      0.18833      0.30965  1.0000
  O           0.44451      0.19095      0.80817  1.0000
  O           0.10259      0.48052      0.79865  1.0000
  O           0.18671      0.44317      0.80674  1.0000
  O           0.48067      0.39988      0.69722  1.0000
  O           0.44595      0.31418      0.68295  1.0000
  O           0.39830      0.01705      0.80677  1.0000
  O           0.30676      0.05928      0.80723  1.0000
  O           0.02030      0.10349      0.68660  1.0000
  O           0.05761      0.18965      0.68745  1.0000
  O           0.19419      0.10394      0.51944  1.0000
  O           0.20755      0.10893      0.61007  1.0000
  O           0.18891      0.18583      0.56294  1.0000
  O           0.10314      0.30223      0.98038  1.0000
  O           0.11367      0.29645      0.88918  1.0000
  O           0.10303      0.48275      0.30126  1.0000
  O           0.18901      0.31049      0.94505  1.0000
  O           0.30676      0.39453      0.51398  1.0000
  O           0.30371      0.38810      0.60654  1.0000
  O           0.31432      0.31138      0.55468  1.0000
  O           0.39516      0.19304      0.97542  1.0000
  O           0.38896      0.20978      0.88350  1.0000
  O           0.31182      0.18787      0.93192  1.0000
  O           0.18805      0.44775      0.30450  1.0000
  O           0.19443      0.39896      0.97838  1.0000
  O           0.20155      0.38293      0.88731  1.0000
  O           0.39873      0.30541      0.51811  1.0000
  O           0.38983      0.29977      0.60939  1.0000
  O           0.30965      0.10707      0.97702  1.0000
  O           0.30079      0.10656      0.88642  1.0000
  O           0.10662      0.19421      0.51977  1.0000
  O           0.10566      0.01838      0.18830  1.0000
  O           0.11147      0.20240      0.61106  1.0000
  O           0.02034      0.19101      0.60008  1.0000
  O           0.02256      0.30308      0.89367  1.0000
  O           0.30519      0.47888      0.59777  1.0000
  O           0.47858      0.19273      0.89475  1.0000
  O           0.48113      0.39879      0.19751  1.0000
  O           0.19734      0.01833      0.60297  1.0000
  O           0.48206      0.29943      0.59859  1.0000
  O           0.30577      0.01592      0.89082  1.0000
  O           0.19651      0.47840      0.89956  1.0000
  O           0.34571      0.26487      0.94693  1.0000
  O           0.35727      0.36027      0.94500  1.0000
  O           0.44701      0.31426      0.18154  1.0000
  O           0.43743      0.29753      0.93062  1.0000
  O           0.26903      0.14760      0.55063  1.0000
  O           0.36041      0.14279      0.54729  1.0000
  O           0.30989      0.06559      0.55702  1.0000
  O           0.15047      0.23128      0.94646  1.0000
  O           0.13776      0.14097      0.94711  1.0000
  O           0.06473      0.19729      0.93875  1.0000
  O           0.23518      0.35377      0.55406  1.0000
  O           0.13816      0.35708      0.55180  1.0000
  O           0.19178      0.44416      0.55822  1.0000
  O           0.35696      0.23251      0.55301  1.0000
  O           0.44013      0.19047      0.55507  1.0000
  O           0.23456      0.14536      0.93945  1.0000
  O           0.18952      0.05524      0.93891  1.0000
  O           0.39859      0.01419      0.30444  1.0000
  O           0.14914      0.26649      0.55516  1.0000
  O           0.06354      0.29924      0.56022  1.0000
  O           0.26647      0.34970      0.94706  1.0000
  O           0.30379      0.43521      0.93341  1.0000
  O           0.44946      0.34434      0.76331  1.0000
  O           0.45291      0.35766      0.86079  1.0000
  O           0.43707      0.43604      0.79710  1.0000
  O           0.30755      0.05855      0.30832  1.0000
  O           0.35041      0.05077      0.72785  1.0000
  O           0.36871      0.04735      0.63765  1.0000
  O           0.43792      0.06125      0.69979  1.0000
  O           0.05433      0.14171      0.76396  1.0000
  O           0.05542      0.13730      0.85524  1.0000
  O           0.06119      0.05793      0.81060  1.0000
  O           0.14608      0.44393      0.72589  1.0000
  O           0.14240      0.45082      0.63670  1.0000
  O           0.06233      0.43872      0.68814  1.0000
  O           0.44899      0.14739      0.73143  1.0000
  O           0.45026      0.13469      0.64110  1.0000
  O           0.14608      0.05573      0.76790  1.0000
  O           0.13923      0.04353      0.86025  1.0000
  O           0.05698      0.34579      0.73102  1.0000
  O           0.04637      0.35446      0.63421  1.0000
  O           0.02023      0.10199      0.19258  1.0000
  O           0.35143      0.44517      0.76576  1.0000
  O           0.36321      0.44637      0.85798  1.0000
  O           0.27222      0.44210      0.84802  1.0000
  O           0.27219      0.05152      0.64809  1.0000
  O           0.05847      0.23332      0.84617  1.0000
  O           0.05489      0.18770      0.18583  1.0000
  O           0.23470      0.44070      0.64192  1.0000
  O           0.45431      0.26762      0.84519  1.0000
  O           0.23010      0.05480      0.85386  1.0000
  O           0.05124      0.26519      0.64664  1.0000
  O           0.44133      0.23276      0.64737  1.0000
  O           0.10358      0.51934      0.18769  1.0000
  O           0.11008      0.61526      0.19997  1.0000
  O           0.19578      0.55976      0.18918  1.0000
  O           0.02227      0.89953      0.29541  1.0000
  O           0.11386      0.89101      0.29582  1.0000
  O           0.05973      0.81573      0.31195  1.0000
  O           0.40077      0.97933      0.19712  1.0000
  O           0.38976      0.88832      0.19810  1.0000
  O           0.11083      0.11464      0.19810  1.0000
  O           0.19491      0.10317      0.02004  1.0000
  O           0.31579      0.94221      0.18268  1.0000
  O           0.48497      0.60228      0.30424  1.0000
  O           0.39304      0.61132      0.29893  1.0000
  O           0.44629      0.68774      0.30683  1.0000
  O           0.10284      0.98211      0.29834  1.0000
  O           0.18712      0.94622      0.30634  1.0000
  O           0.48129      0.89694      0.19939  1.0000
  O           0.20939      0.10984      0.11016  1.0000
  O           0.44406      0.81391      0.18068  1.0000
  O           0.39603      0.51521      0.30247  1.0000
  O           0.30552      0.55836      0.30735  1.0000
  O           0.01967      0.59776      0.19685  1.0000
  O           0.04803      0.68461      0.18619  1.0000
  O           0.19576      0.60037      0.01987  1.0000
  O           0.20724      0.60857      0.11048  1.0000
  O           0.18909      0.18638      0.06139  1.0000
  O           0.19338      0.68536      0.05929  1.0000
  O           0.10883      0.80676      0.48015  1.0000
  O           0.11421      0.79510      0.38835  1.0000
  O           0.19157      0.80900      0.44001  1.0000
  O           0.30457      0.89373      0.01464  1.0000
  O           0.29968      0.88713      0.10703  1.0000
  O           0.31093      0.80877      0.05737  1.0000
  O           0.39376      0.68862      0.47691  1.0000
  O           0.39113      0.70612      0.38414  1.0000
  O           0.31308      0.68767      0.43070  1.0000
  O           0.19619      0.89704      0.47815  1.0000
  O           0.20254      0.88493      0.38693  1.0000
  O           0.39591      0.80306      0.01776  1.0000
  O           0.38756      0.79672      0.10899  1.0000
  O           0.10742      0.30501      0.48199  1.0000
  O           0.30645      0.60584      0.47740  1.0000
  O           0.29918      0.60636      0.38668  1.0000
  O           0.09957      0.69414      0.01818  1.0000
  O           0.10942      0.70039      0.11615  1.0000
  O           0.01927      0.69478      0.09816  1.0000
  O           0.02340      0.80823      0.39555  1.0000
  O           0.11303      0.30093      0.39038  1.0000
  O           0.30705      0.97758      0.09739  1.0000
  O           0.48055      0.68673      0.39082  1.0000
  O           0.19742      0.51789      0.10526  1.0000
  O           0.47967      0.79755      0.09737  1.0000
  O           0.31032      0.51605      0.39158  1.0000
  O           0.19155      0.30889      0.43970  1.0000
  O           0.19760      0.98007      0.39959  1.0000
  O           0.34810      0.76349      0.44566  1.0000
  O           0.35769      0.85945      0.44401  1.0000
  O           0.43841      0.79830      0.43151  1.0000
  O           0.27068      0.64535      0.05052  1.0000
  O           0.36057      0.64018      0.04328  1.0000
  O           0.31120      0.56225      0.05522  1.0000
  O           0.15189      0.73152      0.44797  1.0000
  O           0.13826      0.64128      0.44800  1.0000
  O           0.06688      0.69895      0.43651  1.0000
  O           0.23430      0.84694      0.05317  1.0000
  O           0.13609      0.85644      0.04932  1.0000
  O           0.19355      0.94116      0.05888  1.0000
  O           0.35123      0.73047      0.05287  1.0000
  O           0.43705      0.69220      0.05334  1.0000
  O           0.30556      0.39453      0.01545  1.0000
  O           0.23529      0.64916      0.43948  1.0000
  O           0.19280      0.55719      0.43827  1.0000
  O           0.15388      0.76700      0.05235  1.0000
  O           0.06505      0.79318      0.06268  1.0000
  O           0.26748      0.84878      0.44478  1.0000
  O           0.30370      0.93474      0.43348  1.0000
  O           0.30036      0.38505      0.10759  1.0000
  O           0.44190      0.84610      0.26387  1.0000
  O           0.45357      0.85545      0.36089  1.0000
  O           0.43942      0.93651      0.30017  1.0000
  O           0.35348      0.55374      0.22479  1.0000
  O           0.37013      0.54125      0.13462  1.0000
  O           0.44233      0.55584      0.19369  1.0000
  O           0.05409      0.64732      0.26680  1.0000
  O           0.05659      0.63837      0.35715  1.0000
  O           0.19659      0.06091      0.18804  1.0000
  O           0.31380      0.30983      0.05206  1.0000
  O           0.06656      0.56328      0.30332  1.0000
  O           0.14523      0.94428      0.22587  1.0000
  O           0.14256      0.95056      0.13603  1.0000
  O           0.06190      0.94020      0.18586  1.0000
  O           0.44793      0.64175      0.23019  1.0000
  O           0.44835      0.63297      0.13916  1.0000
  O           0.15269      0.55233      0.26850  1.0000
  O           0.14094      0.54583      0.35976  1.0000
  O           0.06088      0.84963      0.23001  1.0000
  O           0.04754      0.85488      0.13169  1.0000
  O           0.35375      0.94304      0.26586  1.0000
  O           0.36378      0.94719      0.35843  1.0000
  O           0.27284      0.94468      0.34760  1.0000
  O           0.39520      0.19296      0.47700  1.0000
  O           0.27308      0.55214      0.14628  1.0000
  O           0.05282      0.73611      0.34661  1.0000
  O           0.23460      0.94271      0.14227  1.0000
  O           0.45653      0.76471      0.34762  1.0000
  O           0.23177      0.55040      0.35278  1.0000
  O           0.39112      0.20581      0.38457  1.0000
  O           0.05060      0.76487      0.14878  1.0000
  O           0.44050      0.73034      0.14515  1.0000
  O           0.10427      0.51751      0.68895  1.0000
  O           0.10943      0.61328      0.69842  1.0000
  O           0.19526      0.55944      0.68803  1.0000
  O           0.02131      0.89737      0.80513  1.0000
  O           0.11021      0.89369      0.80204  1.0000
  O           0.31215      0.18848      0.43080  1.0000
  O           0.06353      0.81414      0.81269  1.0000
  O           0.39918      0.98018      0.69428  1.0000
  O           0.38898      0.88827      0.70085  1.0000
  O           0.31495      0.94273      0.68404  1.0000
  O           0.48404      0.60033      0.80779  1.0000
  O           0.39293      0.61175      0.80290  1.0000
  O           0.45004      0.68571      0.81529  1.0000
  O           0.09895      0.98265      0.80316  1.0000
  O           0.18446      0.94811      0.80609  1.0000
  O           0.48031      0.89794      0.69793  1.0000
  O           0.44507      0.81275      0.68506  1.0000
  O           0.39786      0.51461      0.80512  1.0000
  O           0.30600      0.55786      0.80737  1.0000
  O           0.01852      0.59886      0.69277  1.0000
  O           0.19276      0.39587      0.47618  1.0000
  O           0.05196      0.68590      0.68695  1.0000
  O           0.19819      0.59913      0.51844  1.0000
  O           0.20696      0.60791      0.60929  1.0000
  O           0.18720      0.68337      0.56045  1.0000
  O           0.10248      0.80116      0.98302  1.0000
  O           0.11158      0.80012      0.89146  1.0000
  O           0.18617      0.81278      0.94761  1.0000
  O           0.20384      0.38367      0.38442  1.0000
  O           0.30524      0.89297      0.51502  1.0000
  O           0.30341      0.88739      0.60790  1.0000
  O           0.31382      0.80950      0.55737  1.0000
  O           0.39494      0.69793      0.97672  1.0000
  O           0.39081      0.70292      0.88543  1.0000
  O           0.31284      0.68482      0.93227  1.0000
  O           0.19706      0.89956      0.97827  1.0000
  O           0.19859      0.88468      0.88716  1.0000
  O           0.39625      0.80852      0.51926  1.0000
  O           0.38935      0.79495      0.61062  1.0000
  O           0.30776      0.60438      0.97601  1.0000
  O           0.30074      0.60494      0.88590  1.0000
  O           0.10663      0.68994      0.51867  1.0000
  O           0.11044      0.69852      0.61081  1.0000
  O           0.39915      0.30614      0.01801  1.0000
  O           0.01959      0.68337      0.60195  1.0000
  O           0.02057      0.80393      0.89321  1.0000
  O           0.30806      0.97784      0.59823  1.0000
  O           0.48139      0.69966      0.90176  1.0000
  O           0.19984      0.51788      0.60269  1.0000
  O           0.38874      0.29858      0.10923  1.0000
  O           0.48105      0.80418      0.60137  1.0000
  O           0.30792      0.51451      0.89025  1.0000
  O           0.19661      0.97983      0.89870  1.0000
  O           0.34942      0.76654      0.93961  1.0000
  O           0.35918      0.86240      0.94599  1.0000
  O           0.44275      0.79937      0.93721  1.0000
  O           0.26811      0.64798      0.55020  1.0000
  O           0.35848      0.64054      0.54697  1.0000
  O           0.30512      0.56470      0.55753  1.0000
  O           0.14562      0.73114      0.94509  1.0000
  O           0.13683      0.64069      0.95057  1.0000
  O           0.05931      0.69187      0.94234  1.0000
  O           0.23546      0.85110      0.55621  1.0000
  O           0.13771      0.85477      0.55122  1.0000
  O           0.30995      0.10873      0.47758  1.0000
  O           0.19109      0.94166      0.55788  1.0000
  O           0.35589      0.73149      0.54944  1.0000
  O           0.43593      0.68602      0.56022  1.0000
  O           0.23356      0.64220      0.93774  1.0000
  O           0.18680      0.55383      0.93911  1.0000
  O           0.14612      0.76411      0.55445  1.0000
  O           0.06155      0.80061      0.55803  1.0000
  O           0.30075      0.10592      0.38750  1.0000
  O           0.26697      0.85314      0.94247  1.0000
  O           0.30452      0.93717      0.93386  1.0000
  O           0.44455      0.84763      0.76541  1.0000
  O           0.45646      0.85747      0.86411  1.0000
  O           0.43977      0.93887      0.80454  1.0000
  O           0.35161      0.55266      0.72833  1.0000
  O           0.36904      0.54461      0.63804  1.0000
  O           0.44122      0.55775      0.69959  1.0000
  O           0.05134      0.64363      0.76562  1.0000
  O           0.05381      0.63573      0.85682  1.0000
  O           0.06375      0.55963      0.80474  1.0000
  O           0.13634      0.94313      0.72744  1.0000
  O           0.14391      0.95031      0.63726  1.0000
  O           0.05907      0.94093      0.67542  1.0000
  O           0.10669      0.19173      0.01877  1.0000
  O           0.44683      0.64397      0.73578  1.0000
  O           0.44670      0.63404      0.64546  1.0000
  O           0.14953      0.55424      0.76936  1.0000
  O           0.13838      0.54115      0.85996  1.0000
  O           0.06015      0.85518      0.73314  1.0000
  O           0.05142      0.85093      0.63383  1.0000
  O           0.35490      0.94615      0.76607  1.0000
  O           0.11078      0.19929      0.11043  1.0000
  O           0.36238      0.94873      0.85814  1.0000
  O           0.27127      0.94347      0.84793  1.0000
  O           0.27217      0.55270      0.65004  1.0000
  O           0.06028      0.73279      0.85160  1.0000
  O           0.23530      0.94248      0.64111  1.0000
  O           0.45033      0.76776      0.85060  1.0000
  O           0.22995      0.55209      0.85470  1.0000
  O           0.04873      0.76131      0.64219  1.0000
  O           0.44681      0.73214      0.64867  1.0000
  O           0.60311      0.01624      0.18776  1.0000
  O           0.61046      0.11293      0.19984  1.0000
  O           0.01925      0.19563      0.10020  1.0000
  O           0.69623      0.05391      0.19017  1.0000
  O           0.52318      0.39677      0.29813  1.0000
  O           0.61483      0.39067      0.29161  1.0000
  O           0.56586      0.31329      0.31058  1.0000
  O           0.89917      0.47855      0.19715  1.0000
  O           0.88881      0.38715      0.20133  1.0000
  O           0.81434      0.43961      0.18268  1.0000
  O           0.98415      0.10176      0.30610  1.0000
  O           0.89247      0.11022      0.29958  1.0000
  O           0.94703      0.18680      0.30882  1.0000
  O           0.60371      0.48181      0.30070  1.0000
  O           0.68880      0.44591      0.30553  1.0000
  O           0.97992      0.39986      0.19742  1.0000
  O           0.94551      0.31375      0.18204  1.0000
  O           0.02199      0.39723      0.29803  1.0000
  O           0.02190      0.30093      0.39475  1.0000
  O           0.89631      0.01394      0.30417  1.0000
  O           0.80460      0.05467      0.30635  1.0000
  O           0.51979      0.10071      0.19412  1.0000
  O           0.55302      0.18767      0.18901  1.0000
  O           0.69940      0.09047      0.01967  1.0000
  O           0.70422      0.10218      0.11132  1.0000
  O           0.68697      0.17398      0.05605  1.0000
  O           0.60349      0.30386      0.48253  1.0000
  O           0.61429      0.29864      0.39069  1.0000
  O           0.68900      0.31162      0.44821  1.0000
  O           0.80220      0.39465      0.01446  1.0000
  O           0.80396      0.38675      0.10692  1.0000
  O           0.81670      0.31305      0.05393  1.0000
  O           0.89563      0.19849      0.47441  1.0000
  O           0.89129      0.20331      0.38274  1.0000
  O           0.30529      0.47559      0.09717  1.0000
  O           0.81332      0.18481      0.42868  1.0000
  O           0.69556      0.39868      0.47712  1.0000
  O           0.70259      0.38197      0.38612  1.0000
  O           0.90072      0.29563      0.01711  1.0000
  O           0.88976      0.29649      0.10831  1.0000
  O           0.80834      0.10531      0.47270  1.0000
  O           0.79803      0.10554      0.38286  1.0000
  O           0.59908      0.19778      0.01833  1.0000
  O           0.60997      0.19842      0.11564  1.0000
  O           0.51910      0.19489      0.09987  1.0000
  O           0.52334      0.30627      0.39377  1.0000
  O           0.80675      0.47666      0.09786  1.0000
  O           0.48120      0.19408      0.39464  1.0000
  O           0.98191      0.19752      0.39712  1.0000
  O           0.69941      0.01326      0.10557  1.0000
  O           0.98095      0.29642      0.09658  1.0000
  O           0.80850      0.01528      0.39167  1.0000
  O           0.69346      0.47802      0.39809  1.0000
  O           0.84883      0.26604      0.43728  1.0000
  O           0.86102      0.36155      0.44543  1.0000
  O           0.94157      0.29503      0.43212  1.0000
  O           0.76987      0.13773      0.05580  1.0000
  O           0.86145      0.13942      0.05017  1.0000
  O           0.81589      0.05845      0.05493  1.0000
  O           0.64822      0.23254      0.44802  1.0000
  O           0.63635      0.14226      0.44933  1.0000
  O           0.19799      0.01874      0.10347  1.0000
  O           0.56127      0.19670      0.44128  1.0000
  O           0.73360      0.35262      0.05884  1.0000
  O           0.63383      0.35674      0.04761  1.0000
  O           0.68893      0.44205      0.05767  1.0000
  O           0.85187      0.22976      0.05501  1.0000
  O           0.93624      0.19537      0.05660  1.0000
  O           0.73326      0.14466      0.43591  1.0000
  O           0.68783      0.05621      0.43695  1.0000
  O           0.65009      0.26742      0.05770  1.0000
  O           0.56219      0.29404      0.06183  1.0000
  O           0.76886      0.35325      0.44556  1.0000
  O           0.80942      0.43685      0.43455  1.0000
  O           0.94740      0.34314      0.26226  1.0000
  O           0.95350      0.35497      0.35988  1.0000
  O           0.48113      0.29581      0.09860  1.0000
  O           0.93648      0.43520      0.29686  1.0000
  O           0.85517      0.05238      0.22516  1.0000
  O           0.87207      0.03812      0.13542  1.0000
  O           0.94333      0.05592      0.19482  1.0000
  O           0.55559      0.14716      0.26672  1.0000
  O           0.55531      0.13788      0.35744  1.0000
  O           0.56516      0.06240      0.30307  1.0000
  O           0.64742      0.44817      0.22639  1.0000
  O           0.64156      0.44969      0.13671  1.0000
  O           0.56299      0.43770      0.18929  1.0000
  O           0.94766      0.14250      0.23144  1.0000
  O           0.94949      0.13391      0.14086  1.0000
  O           0.65111      0.04995      0.26835  1.0000
  O           0.63835      0.04217      0.35900  1.0000
  O           0.11379      0.39169      0.29533  1.0000
  O           0.30855      0.01524      0.39181  1.0000
  O           0.55769      0.34492      0.23117  1.0000
  O           0.54630      0.35393      0.13341  1.0000
  O           0.85081      0.44249      0.26585  1.0000
  O           0.86372      0.44788      0.35747  1.0000
  O           0.77243      0.44496      0.34986  1.0000
  O           0.77447      0.04957      0.14598  1.0000
  O           0.55995      0.23499      0.34810  1.0000
  O           0.73361      0.43963      0.13994  1.0000
  O           0.95246      0.26537      0.34390  1.0000
  O           0.72995      0.04789      0.35154  1.0000
  O           0.55089      0.26459      0.15025  1.0000
  O           0.19479      0.47911      0.39800  1.0000
  O           0.94346      0.23187      0.15012  1.0000
  O           0.60416      0.01777      0.69422  1.0000
  O           0.60865      0.11477      0.69657  1.0000
  O           0.69291      0.06432      0.68493  1.0000
  O           0.52323      0.39865      0.79877  1.0000
  O           0.61482      0.39011      0.79376  1.0000
  O           0.55938      0.31440      0.81241  1.0000
  O           0.89956      0.47804      0.69672  1.0000
  O           0.88937      0.38673      0.69872  1.0000
  O           0.81483      0.43888      0.68250  1.0000
  O           0.98332      0.10206      0.80691  1.0000
  O           0.89078      0.11290      0.79878  1.0000
  O           0.94093      0.18613      0.80806  1.0000
  O           0.60143      0.48124      0.80097  1.0000
  O           0.68709      0.44922      0.80680  1.0000
  O           0.34820      0.26460      0.44413  1.0000
  O           0.98036      0.39907      0.69840  1.0000
  O           0.94711      0.31469      0.67968  1.0000
  O           0.89718      0.01510      0.80624  1.0000
  O           0.81031      0.07085      0.81239  1.0000
  O           0.51829      0.10016      0.69489  1.0000
  O           0.54932      0.18675      0.68792  1.0000
  O           0.35775      0.35919      0.44407  1.0000
  O           0.69627      0.10222      0.51749  1.0000
  O           0.70536      0.11171      0.60763  1.0000
  O           0.69406      0.18759      0.55544  1.0000
  O           0.60322      0.29799      0.98280  1.0000
  O           0.61164      0.29914      0.89033  1.0000
  O           0.68607      0.31202      0.94314  1.0000
  O           0.80980      0.39338      0.51587  1.0000
  O           0.79808      0.38551      0.60754  1.0000
  O           0.44120      0.30011      0.43326  1.0000
  O           0.81195      0.30858      0.55559  1.0000
  O           0.89043      0.19231      0.97822  1.0000
  O           0.88979      0.19697      0.88273  1.0000
  O           0.81435      0.18186      0.92035  1.0000
  O           0.69703      0.39773      0.97816  1.0000
  O           0.69921      0.38456      0.88669  1.0000
  O           0.89754      0.30026      0.51555  1.0000
  O           0.88889      0.29823      0.60706  1.0000
  O           0.81290      0.10889      0.97943  1.0000
  O           0.79963      0.10460      0.88903  1.0000
  O           0.59937      0.19502      0.51857  1.0000
  O           0.61049      0.20353      0.61658  1.0000
  O           0.52016      0.19676      0.59927  1.0000
  O           0.26934      0.14847      0.04894  1.0000
  O           0.52122      0.30599      0.89601  1.0000
  O           0.80308      0.47613      0.59793  1.0000
  O           0.98151      0.19041      0.89272  1.0000
  O           0.69973      0.01957      0.60335  1.0000
  O           0.98127      0.29880      0.59617  1.0000
  O           0.36056      0.14240      0.04590  1.0000
  O           0.81025      0.01332      0.88693  1.0000
  O           0.69564      0.47946      0.90120  1.0000
  O           0.85485      0.26426      0.93413  1.0000
  O           0.85920      0.36073      0.94924  1.0000
  O           0.94521      0.30259      0.93910  1.0000
  O           0.77178      0.14487      0.54817  1.0000
  O           0.86163      0.13988      0.53991  1.0000
  O           0.06136      0.31530      0.31214  1.0000
  O           0.30982      0.06575      0.05750  1.0000
  O           0.81464      0.06126      0.55054  1.0000
  O           0.64459      0.22924      0.94040  1.0000
  O           0.63548      0.13961      0.95478  1.0000
  O           0.55916      0.19244      0.94243  1.0000
  O           0.73480      0.34846      0.55017  1.0000
  O           0.63693      0.35830      0.55058  1.0000
  O           0.69320      0.44264      0.56050  1.0000
  O           0.85296      0.22996      0.55272  1.0000
  O           0.93812      0.19192      0.55094  1.0000
  O           0.73334      0.14072      0.94122  1.0000
  O           0.68349      0.05333      0.94003  1.0000
  O           0.65361      0.26876      0.55116  1.0000
  O           0.56540      0.29543      0.56306  1.0000
  O           0.76782      0.35406      0.93914  1.0000
  O           0.14721      0.23203      0.44434  1.0000
  O           0.80762      0.43672      0.93417  1.0000
  O           0.94484      0.34540      0.76311  1.0000
  O           0.95252      0.35500      0.86166  1.0000
  O           0.93747      0.43609      0.79931  1.0000
  O           0.86027      0.05601      0.72513  1.0000
  O           0.86936      0.04491      0.63223  1.0000
  O           0.94511      0.05434      0.68340  1.0000
  O           0.13682      0.14259      0.44802  1.0000
  O           0.55484      0.14335      0.76728  1.0000
  O           0.55312      0.13656      0.85785  1.0000
  O           0.55992      0.05763      0.80831  1.0000
  O           0.64607      0.44835      0.72737  1.0000
  O           0.64090      0.45250      0.63777  1.0000
  O           0.56164      0.44016      0.68931  1.0000
  O           0.94707      0.13748      0.72974  1.0000
  O           0.94788      0.13542      0.63812  1.0000
  O           0.06063      0.19591      0.44257  1.0000
  O           0.64475      0.06077      0.77108  1.0000
  O           0.63757      0.03851      0.86027  1.0000
  O           0.55757      0.34837      0.73143  1.0000
  O           0.54730      0.35643      0.63307  1.0000
  O           0.85214      0.44042      0.76540  1.0000
  O           0.86271      0.44683      0.85744  1.0000
  O           0.77138      0.44638      0.84901  1.0000
  O           0.77341      0.05958      0.64036  1.0000
  O           0.55550      0.23466      0.84999  1.0000
  O           0.73254      0.44041      0.64485  1.0000
  O           0.94743      0.26533      0.85317  1.0000
  O           0.23445      0.34923      0.05182  1.0000
  O           0.72975      0.05331      0.85880  1.0000
  O           0.55025      0.26666      0.64987  1.0000
  O           0.94215      0.23204      0.64366  1.0000
  O           0.60240      0.51770      0.18825  1.0000
  O           0.61028      0.61404      0.20085  1.0000
  O           0.69524      0.55842      0.18924  1.0000
  O           0.13580      0.35531      0.04900  1.0000
  O           0.52219      0.89479      0.29624  1.0000
  O           0.61396      0.88984      0.29472  1.0000
  O           0.56543      0.81199      0.31235  1.0000
  O           0.90251      0.97687      0.19880  1.0000
  O           0.89102      0.88539      0.20391  1.0000
  O           0.81766      0.93725      0.18253  1.0000
  O           0.98459      0.60450      0.30719  1.0000
  O           0.89299      0.61113      0.30084  1.0000
  O           0.19033      0.44168      0.05897  1.0000
  O           0.94388      0.68994      0.30815  1.0000
  O           0.59947      0.98079      0.29959  1.0000
  O           0.68574      0.94899      0.30850  1.0000
  O           0.98146      0.89702      0.19646  1.0000
  O           0.94547      0.81128      0.18278  1.0000
  O           0.89739      0.51439      0.30123  1.0000
  O           0.80540      0.55676      0.30790  1.0000
  O           0.51988      0.60196      0.19047  1.0000
  O           0.55576      0.68897      0.18741  1.0000
  O           0.69354      0.60235      0.02063  1.0000
  O           0.70647      0.60795      0.11147  1.0000
  O           0.68886      0.68480      0.06300  1.0000
  O           0.60388      0.80679      0.48303  1.0000
  O           0.61434      0.79302      0.39157  1.0000
  O           0.35653      0.23223      0.05056  1.0000
  O           0.68769      0.81152      0.44909  1.0000
  O           0.80847      0.89235      0.01553  1.0000
  O           0.80286      0.88249      0.10773  1.0000
  O           0.81461      0.80781      0.05213  1.0000
  O           0.89022      0.68872      0.47618  1.0000
  O           0.88945      0.70630      0.38465  1.0000
  O           0.81138      0.68637      0.42897  1.0000
  O           0.43979      0.18976      0.05445  1.0000
  O           0.69536      0.89988      0.47920  1.0000
  O           0.69925      0.88316      0.38837  1.0000
  O           0.89986      0.80245      0.01770  1.0000
  O           0.88961      0.79729      0.10886  1.0000
  O           0.80472      0.60516      0.47587  1.0000
  O           0.79801      0.60624      0.38564  1.0000
  O           0.60620      0.69223      0.02114  1.0000
  O           0.61088      0.69988      0.11227  1.0000
  O           0.51971      0.69148      0.10069  1.0000
  O           0.52332      0.80716      0.39461  1.0000
  O           0.80634      0.97283      0.09785  1.0000
  O           0.97974      0.68816      0.39266  1.0000
  O           0.23448      0.14674      0.43942  1.0000
  O           0.69719      0.51760      0.10514  1.0000
  O           0.98164      0.79726      0.09852  1.0000
  O           0.81000      0.51620      0.39219  1.0000
  O           0.69426      0.97882      0.40134  1.0000
  O           0.84991      0.76518      0.44486  1.0000
  O           0.85817      0.86157      0.44477  1.0000
  O           0.18892      0.05641      0.43822  1.0000
  O           0.93988      0.80337      0.43435  1.0000
  O           0.76850      0.64530      0.05082  1.0000
  O           0.85985      0.64013      0.04574  1.0000
  O           0.81073      0.56294      0.05584  1.0000
  O           0.64985      0.73164      0.45479  1.0000
  O           0.63588      0.64049      0.44927  1.0000
  O           0.56648      0.69882      0.43607  1.0000
  O           0.73578      0.84906      0.05229  1.0000
  O           0.63742      0.85459      0.05220  1.0000
  O           0.69091      0.93994      0.06056  1.0000
  O           0.85713      0.72974      0.05206  1.0000
  O           0.93983      0.68651      0.05445  1.0000
  O           0.73259      0.64591      0.43843  1.0000
  O           0.69031      0.55566      0.43895  1.0000
  O           0.14508      0.26537      0.05476  1.0000
  O           0.64734      0.76478      0.05588  1.0000
  O           0.56069      0.79944      0.05845  1.0000
  O           0.76625      0.85263      0.44555  1.0000
  O           0.80478      0.93612      0.43468  1.0000
  O           0.95073      0.84206      0.26340  1.0000
  O           0.95455      0.85657      0.36018  1.0000
  O           0.93653      0.93517      0.29759  1.0000
  O           0.05840      0.30163      0.05698  1.0000
  O           0.85271      0.55415      0.22613  1.0000
  O           0.87008      0.54305      0.13579  1.0000
  O           0.94168      0.55505      0.19635  1.0000
  O           0.55137      0.64939      0.26446  1.0000
  O           0.55686      0.63773      0.35443  1.0000
  O           0.56768      0.56362      0.29947  1.0000
  O           0.64744      0.94748      0.22854  1.0000
  O           0.64284      0.94658      0.13929  1.0000
  O           0.56307      0.93646      0.19103  1.0000
  O           0.94701      0.64200      0.23217  1.0000
  O           0.95194      0.63145      0.14169  1.0000
  O           0.65360      0.55120      0.26831  1.0000
  O           0.63985      0.54515      0.35960  1.0000
  O           0.56062      0.84482      0.23096  1.0000
  O           0.54496      0.85498      0.13252  1.0000
  O           0.26733      0.34989      0.44450  1.0000
  O           0.85108      0.94265      0.26618  1.0000
  O           0.86220      0.94633      0.35814  1.0000
  O           0.77046      0.94528      0.34921  1.0000
  O           0.77283      0.55220      0.14696  1.0000
  O           0.55481      0.73438      0.34577  1.0000
