data_zeol_rho_im3m_01_222

_audit_creation_method RASPA-1.0
_audit_creation_date 2013-12-9
_audit_author_name 'Salvador Rodriguez Gomez Balestra'

_cell_length_a    30.0
_cell_length_b    30.0
_cell_length_c    30.0
_cell_angle_alpha 90.0
_cell_angle_beta  90.0
_cell_angle_gamma 90.0

_symmetry_cell_setting          triclinic
_symmetry_space_group_name_Hall 'P 1'
_symmetry_space_group_name_H-M  'P 1'
_symmetry_Int_Tables_number     1

_symmetry_equiv_pos_as_xyz 'x,y,z'

loop_
_atom_site_label
_atom_site_type_symbol
_atom_site_fract_x
_atom_site_fract_y
_atom_site_fract_z
_atom_site_charge
Si       Si0    0.121439     0.0526776    0.201764     2.4        
Al       Al0    0.376044     0.296756     0.450465     1.4        
Si       Si0    0.377918     0.451372     0.19823      2.4        
Si       Si0    0.12719      0.195642     0.452234     2.4        
Si       Si0    0.374816     0.0447061    0.306678     2.4        
Si       Si0    0.129421     0.304292     0.054023     2.4        
Si       Si0    0.126336     0.447636     0.305766     2.4        
Al       Al0    0.371184     0.194674     0.0536937    1.4        
Si       Si0    0.19766      0.12944      0.0600126    2.4        
Al       Al0    0.451224     0.378974     0.298358     1.4        
Si       Si0    0.20085      0.371079     0.455868     2.4        
Al       Al0    0.442735     0.124523     0.197238     1.4        
Si       Si0    0.2991       0.379303     0.0514237    2.4        
Si       Si0    0.0470469    0.119769     0.305528     2.4        
Si       Si0    0.300768     0.115885     0.454212     2.4        
Si       Si0    0.0513421    0.377495     0.205116     2.4        
Si       Si0    0.0521057    0.195217     0.12616      2.4        
Al       Al0    0.297585     0.441864     0.372716     1.4        
Si       Si0    0.445359     0.196631     0.37065      2.4        
Al       Al0    0.202296     0.450438     0.126584     1.4        
Si       Si0    0.0530274    0.301533     0.383866     2.4        
Al       Al0    0.293949     0.0541881    0.134724     1.4        
Si       Si0    0.448359     0.307499     0.123369     2.4        
Al       Al0    0.197351     0.0513711    0.378012     1.4        
Si       Si0    0.0474193    0.123799     0.204642     2.4        
Si       Si0    0.300532     0.375049     0.452432     2.4        
Si       Si0    0.451563     0.378899     0.197259     2.4        
Si       Si0    0.198935     0.120859     0.453999     2.4        
Si       Si0    0.0513947    0.375344     0.306192     2.4        
Si       Si0    0.300917     0.120211     0.0582714    2.4        
Si       Si0    0.44683      0.118813     0.299473     2.4        
Si       Si0    0.197753     0.377258     0.0525516    2.4        
Si       Si0    0.125061     0.199546     0.0562345    2.4        
Si       Si0    0.375606     0.449209     0.300992     2.4        
Si       Si0    0.373046     0.192162     0.448204     2.4        
Si       Si0    0.128617     0.445325     0.203241     2.4        
Si       Si0    0.367363     0.300697     0.0553203    2.4        
Si       Si0    0.121405     0.0499946    0.30257      2.4        
Si       Si0    0.127643     0.300909     0.452328     2.4        
Si       Si0    0.374839     0.0479921    0.202179     2.4        
Si       Si0    0.194105     0.0540453    0.129612     2.4        
Si       Si0    0.448289     0.301228     0.374311     2.4        
Si       Si0    0.196923     0.448349     0.38196      2.4        
Si       Si0    0.448041     0.203309     0.127747     2.4        
Si       Si0    0.30231      0.0501682    0.375444     2.4        
Al       Al0    0.0536922    0.30364      0.1267       1.4        
Si       Si0    0.303003     0.446472     0.124854     2.4        
Al       Al0    0.0521604    0.197353     0.382252     1.4        
O        O0    -0.00212075   0.108433     0.198659    -1.2        
O        O0     0.25134      0.359509     0.453553    -1.2        
O        O0     0.502587     0.393335     0.19787     -1.2        
O        O0     0.251408     0.127203     0.447925    -1.2        
O        O0     0.500292     0.107106     0.304207    -1.2        
O        O0     0.248307     0.375169     0.0572943   -1.2        
O        O0     0.0053182    0.392918     0.315999    -1.2        
O        O0     0.249954     0.136128     0.0656863   -1.2        
O        O0     0.188859     0.00442549   0.116229    -1.2        
O        O0     0.438783     0.251278     0.356831    -1.2        
O        O0     0.187305     0.497677     0.392635    -1.2        
O        O0     0.444508     0.256619     0.136871    -1.2        
O        O0     0.299679     0.496563     0.11207     -1.2        
O        O0     0.0607507    0.253895     0.370123    -1.2        
O        O0     0.302362    -0.00232774   0.388308    -1.2        
O        O0     0.0567713    0.245658     0.136768    -1.2        
O        O0     0.117329     0.188589     0.00473426  -1.2        
O        O0     0.363445     0.440536     0.247639    -1.2        
O        O0     0.394143     0.187557     0.497987    -1.2        
O        O0     0.138162     0.443853     0.254096    -1.2        
O        O0     0.122227     0.310099     0.503066    -1.2        
O        O0     0.364029     0.0513806    0.253933    -1.2        
O        O0     0.383205     0.303021     0.00417847  -1.2        
O        O0     0.135295     0.0546877    0.250638    -1.2        
O        O0     0.108567    -0.000896897  0.19381     -1.2        
O        O0     0.353771     0.24397      0.446193    -1.2        
O        O0     0.386903     0.503938     0.198272    -1.2        
O        O0     0.136007     0.247735     0.445363    -1.2        
O        O0     0.111845     0.501072     0.310991    -1.2        
O        O0     0.356913     0.251173     0.0658299   -1.2        
O        O0     0.387474    -0.00624958   0.315618    -1.2        
O        O0     0.13527      0.251825     0.060668    -1.2        
O        O0     0.00106596   0.184054     0.113263    -1.2        
O        O0     0.245732     0.438978     0.36155     -1.2        
O        O0     0.492668     0.191093     0.390859    -1.2        
O        O0     0.253822     0.432115     0.140868    -1.2        
O        O0     0.497543     0.311524     0.106789    -1.2        
O        O0     0.250234     0.0587509    0.362333    -1.2        
O        O0    -0.00252808   0.30751      0.394848    -1.2        
O        O0     0.242812     0.0679662    0.146958    -1.2        
O        O0     0.190388     0.121905     0.00764076  -1.2        
O        O0     0.440011     0.363222     0.245224    -1.2        
O        O0     0.193791     0.386951     0.50573     -1.2        
O        O0     0.430764     0.130591     0.251856    -1.2        
O        O0     0.307398     0.100329     0.50388     -1.2        
O        O0     0.0550004    0.358738     0.255769    -1.2        
O        O0     0.309028     0.390841     0.000259764 -1.2        
O        O0     0.0523308    0.136882     0.256391    -1.2        
O        O0     0.0805844    0.0818502    0.191325    -1.2        
O        O0     0.0803736    0.0802029    0.312106    -1.2        
O        O0     0.333322     0.336011     0.451814    -1.2        
O        O0     0.32338      0.333856     0.0638463   -1.2        
O        O0     0.421805     0.423741     0.185983    -1.2        
O        O0     0.421723     0.421948     0.31142     -1.2        
O        O0     0.171108     0.16453      0.44548     -1.2        
O        O0     0.169368     0.173564     0.0678297   -1.2        
O        O0     0.415634     0.0773932    0.316205    -1.2        
O        O0     0.405259     0.0877034    0.185203    -1.2        
O        O0     0.173923     0.32976      0.0623704   -1.2        
O        O0     0.168646     0.331024     0.440467    -1.2        
O        O0     0.085353     0.413211     0.313272    -1.2        
O        O0     0.0866888    0.41446      0.196152    -1.2        
O        O0     0.335123     0.157065     0.0695739   -1.2        
O        O0     0.331517     0.160006     0.444755    -1.2        
O        O0     0.184734     0.0872036    0.0876746   -1.2        
O        O0     0.315817     0.0814192    0.0908359   -1.2        
O        O0     0.439182     0.339124     0.339424    -1.2        
O        O0     0.0655219    0.336088     0.340413    -1.2        
O        O0     0.189511     0.412434     0.423962    -1.2        
O        O0     0.315108     0.405891     0.412938    -1.2        
O        O0     0.427544     0.17464      0.167222    -1.2        
O        O0     0.0565971    0.165782     0.171645    -1.2        
O        O0     0.317673     0.417961     0.0822738   -1.2        
O        O0     0.179807     0.414803     0.0884021   -1.2        
O        O0     0.06084      0.158326     0.338718    -1.2        
O        O0     0.441587     0.161527     0.330485    -1.2        
O        O0     0.316086     0.0781961    0.4177      -1.2        
O        O0     0.180263     0.0846256    0.422167    -1.2        
O        O0     0.059357     0.339717     0.171951    -1.2        
O        O0     0.443694     0.339595     0.163709    -1.2        
O        O0     0.0861647    0.185382     0.0874361   -1.2        
O        O0     0.0939296    0.321844     0.0870835   -1.2        
O        O0     0.336712     0.43175      0.3303      -1.2        
O        O0     0.332182     0.058846     0.33606     -1.2        
O        O0     0.408856     0.186052     0.410104    -1.2        
O        O0     0.415633     0.313829     0.414078    -1.2        
O        O0     0.17068      0.427435     0.17576     -1.2        
O        O0     0.16004      0.0627315    0.168259    -1.2        
O        O0     0.0850649    0.314558     0.425215    -1.2        
O        O0     0.0954124    0.177953     0.416667    -1.2        
O        O0     0.333051     0.0583912    0.173711    -1.2        
O        O0     0.340058     0.441707     0.163334    -1.2        
O        O0     0.414552     0.317628     0.0851973   -1.2        
O        O0     0.42249      0.188227     0.0851527   -1.2        
O        O0     0.159625     0.0627929    0.337713    -1.2        
O        O0     0.162089     0.435948     0.341239    -1.2        
Si       Si0    0.129493     0.050013     0.699525     2.4        
Al       Al0    0.370403     0.295537     0.952357     1.4        
Si       Si0    0.377844     0.450005     0.704216     2.4        
Si       Si0    0.131801     0.198682     0.955635     2.4        
Si       Si0    0.375821     0.047341     0.808798     2.4        
Si       Si0    0.130513     0.300321     0.55304      2.4        
Si       Si0    0.117899     0.452925     0.801415     2.4        
Al       Al0    0.369516     0.19897      0.545656     1.4        
Si       Si0    0.199987     0.118826     0.557209     2.4        
Al       Al0    0.441774     0.373069     0.811163     1.4        
Si       Si0    0.193296     0.377318     0.952386     2.4        
Al       Al0    0.441918     0.123451     0.70016      1.4        
Si       Si0    0.308594     0.383987     0.553024     2.4        
Si       Si0    0.0518106    0.12294      0.800559     2.4        
Si       Si0    0.303053     0.122322     0.954818     2.4        
Si       Si0    0.0484263    0.376304     0.704286     2.4        
Si       Si0    0.0572731    0.197138     0.628455     2.4        
Al       Al0    0.296359     0.448094     0.883452     1.4        
Si       Si0    0.447922     0.196724     0.879702     2.4        
Al       Al0    0.200175     0.44439      0.633556     1.4        
Si       Si0    0.0497022    0.300527     0.883723     2.4        
Al       Al0    0.304115     0.0520782    0.628604     1.4        
Si       Si0    0.445131     0.299069     0.634034     2.4        
Al       Al0    0.202896     0.0581071    0.879264     1.4        
Si       Si0    0.053089     0.121352     0.694458     2.4        
Si       Si0    0.295544     0.368264     0.952357     2.4        
Si       Si0    0.4463       0.374604     0.702386     2.4        
Si       Si0    0.200008     0.12895      0.956233     2.4        
Si       Si0    0.0493788    0.375945     0.803136     2.4        
Si       Si0    0.303259     0.118113     0.55486      2.4        
Si       Si0    0.447402     0.123784     0.805855     2.4        
Si       Si0    0.204318     0.374324     0.555954     2.4        
Si       Si0    0.127726     0.192102     0.552323     2.4        
Si       Si0    0.369815     0.44702      0.807804     2.4        
Si       Si0    0.379798     0.193362     0.95331      2.4        
Si       Si0    0.124761     0.450261     0.703842     2.4        
Si       Si0    0.379185     0.299767     0.548756     2.4        
Si       Si0    0.124786     0.051883     0.800745     2.4        
Si       Si0    0.122871     0.301316     0.955149     2.4        
Si       Si0    0.366148     0.0507765    0.706528     2.4        
Si       Si0    0.198412     0.0495947    0.627377     2.4        
Si       Si0    0.44935      0.297707     0.883725     2.4        
Si       Si0    0.188948     0.454039     0.880792     2.4        
Si       Si0    0.445048     0.201146     0.630956     2.4        
Si       Si0    0.302157     0.0538555    0.882298     2.4        
Al       Al0    0.0567653    0.298933     0.626174     1.4        
Si       Si0    0.306542     0.452029     0.629487     2.4        
Al       Al0    0.0521825    0.194573     0.880356     1.4        
O        O0     0.00135633   0.108845     0.685977    -1.2        
O        O0     0.244084     0.361257     0.948711    -1.2        
O        O0     0.499061     0.380143     0.691253    -1.2        
O        O0     0.252676     0.135103     0.947862    -1.2        
O        O0     0.49737      0.112239     0.810581    -1.2        
O        O0     0.257682     0.36752      0.561957    -1.2        
O        O0    -0.00079955   0.38675      0.810073    -1.2        
O        O0     0.252241     0.130664     0.568365    -1.2        
O        O0     0.188674    -0.000239611  0.615249    -1.2        
O        O0     0.440962     0.248505     0.869493    -1.2        
O        O0     0.176226     0.502311     0.89373     -1.2        
O        O0     0.438188     0.247257     0.652903    -1.2        
O        O0     0.31127      0.501234     0.614152    -1.2        
O        O0     0.0573406    0.249365     0.874173    -1.2        
O        O0     0.304692     0.00290672   0.892852    -1.2        
O        O0     0.0696419    0.247117     0.63815     -1.2        
O        O0     0.111327     0.182725     0.50193     -1.2        
O        O0     0.362787     0.439489     0.755386    -1.2        
O        O0     0.394495     0.191483     1.0037      -1.2        
O        O0     0.136634     0.448726     0.75511     -1.2        
O        O0     0.111602     0.313099     1.00574     -1.2        
O        O0     0.353846     0.0524782    0.758787    -1.2        
O        O0     0.396433     0.302833     0.500594    -1.2        
O        O0     0.139479     0.0586234    0.751159    -1.2        
O        O0     0.11761     -0.00168643   0.69396     -1.2        
O        O0     0.361403     0.241292     0.94852     -1.2        
O        O0     0.395113     0.500326     0.7059      -1.2        
O        O0     0.138209     0.251286     0.951227    -1.2        
O        O0     0.103132     0.504597     0.806983    -1.2        
O        O0     0.3495       0.254647     0.550274    -1.2        
O        O0     0.389342    -0.00321397   0.811582    -1.2        
O        O0     0.139226     0.246828     0.555899    -1.2        
O        O0     0.00496558   0.192813     0.618269    -1.2        
O        O0     0.239239     0.447692     0.864115    -1.2        
O        O0     0.499502     0.191751     0.888074    -1.2        
O        O0     0.25731      0.44072      0.642339    -1.2        
O        O0     0.495662     0.304867     0.624792    -1.2        
O        O0     0.257122     0.0677368    0.864831    -1.2        
O        O0    -0.00259383   0.30506      0.891057    -1.2        
O        O0     0.247677     0.0600352    0.637464    -1.2        
O        O0     0.197924     0.107408     0.504764    -1.2        
O        O0     0.442099     0.363252     0.752369    -1.2        
O        O0     0.18682      0.391613     1.0036      -1.2        
O        O0     0.442154     0.140399     0.756028    -1.2        
O        O0     0.3089       0.106806     1.00612     -1.2        
O        O0     0.057521     0.354614     0.751617    -1.2        
O        O0     0.308942     0.401355     0.498867    -1.2        
O        O0     0.0589907    0.135448     0.748087    -1.2        
O        O0     0.0855345    0.0811017    0.681481    -1.2        
O        O0     0.0790288    0.0816912    0.807391    -1.2        
O        O0     0.321905     0.322265     0.944898    -1.2        
O        O0     0.342239     0.34173      0.555659    -1.2        
O        O0     0.42134      0.41997      0.693029    -1.2        
O        O0     0.403173     0.40922      0.824657    -1.2        
O        O0     0.176584     0.174901     0.942537    -1.2        
O        O0     0.17125      0.161583     0.562908    -1.2        
O        O0     0.417988     0.0784507    0.809918    -1.2        
O        O0     0.402067     0.0845209    0.69513     -1.2        
O        O0     0.175584     0.327897     0.568666    -1.2        
O        O0     0.161789     0.335626     0.943931    -1.2        
O        O0     0.0778766    0.420304     0.806127    -1.2        
O        O0     0.0835591    0.416865     0.694821    -1.2        
O        O0     0.332642     0.16019      0.561051    -1.2        
O        O0     0.337186     0.16183      0.948662    -1.2        
O        O0     0.180376     0.0812851    0.589267    -1.2        
O        O0     0.326759     0.0844484    0.589222    -1.2        
O        O0     0.438151     0.327294     0.840802    -1.2        
O        O0     0.0615484    0.335926     0.843161    -1.2        
O        O0     0.181135     0.418344     0.922179    -1.2        
O        O0     0.308492     0.401832     0.914305    -1.2        
O        O0     0.433693     0.159394     0.663596    -1.2        
O        O0     0.0673939    0.164156     0.666687    -1.2        
O        O0     0.321221     0.423685     0.586005    -1.2        
O        O0     0.186268     0.416008     0.586195    -1.2        
O        O0     0.0679996    0.159409     0.832272    -1.2        
O        O0     0.431897     0.164805     0.837665    -1.2        
O        O0     0.315851     0.0816905    0.923074    -1.2        
O        O0     0.187091     0.0882643    0.925912    -1.2        
O        O0     0.062079     0.338371     0.668159    -1.2        
O        O0     0.428038     0.334655     0.670304    -1.2        
O        O0     0.0866526    0.181191     0.586831    -1.2        
O        O0     0.0917857    0.31832      0.583428    -1.2        
O        O0     0.325332     0.446633     0.830006    -1.2        
O        O0     0.340703     0.0598948    0.845636    -1.2        
O        O0     0.418783     0.184464     0.919498    -1.2        
O        O0     0.412316     0.312774     0.917997    -1.2        
O        O0     0.161542     0.431475     0.672657    -1.2        
O        O0     0.172098     0.0612426    0.672164    -1.2        
O        O0     0.0803409    0.308939     0.925316    -1.2        
O        O0     0.0938821    0.183329     0.918851    -1.2        
O        O0     0.324426     0.0564094    0.679328    -1.2        
O        O0     0.339109     0.441932     0.670483    -1.2        
O        O0     0.416995     0.29938      0.588011    -1.2        
O        O0     0.412972     0.196492     0.591415    -1.2        
O        O0     0.159493     0.0692754    0.83425     -1.2        
O        O0     0.156262     0.440198     0.840285    -1.2        
Si       Si0    0.123146     0.551818     0.196074     2.4        
Al       Al0    0.374581     0.800522     0.451175     1.4        
Si       Si0    0.376584     0.947296     0.200618     2.4        
Si       Si0    0.126667     0.696904     0.449268     2.4        
Si       Si0    0.370122     0.554576     0.301573     2.4        
Si       Si0    0.119522     0.807928     0.0514009    2.4        
Si       Si0    0.12366      0.946753     0.301701     2.4        
Al       Al0    0.375087     0.703594     0.0557584    1.4        
Si       Si0    0.192783     0.62577      0.0507108    2.4        
Al       Al0    0.448034     0.868674     0.304007     1.4        
Si       Si0    0.198448     0.873649     0.44941      2.4        
Al       Al0    0.451509     0.631449     0.205658     1.4        
Si       Si0    0.29858      0.875054     0.0596512    2.4        
Si       Si0    0.048817     0.623648     0.296177     2.4        
Si       Si0    0.300843     0.625524     0.457744     2.4        
Si       Si0    0.0464751    0.875935     0.200633     2.4        
Si       Si0    0.0503789    0.694411     0.124579     2.4        
Al       Al0    0.298444     0.94332      0.372098     1.4        
Si       Si0    0.450337     0.69238      0.383612     2.4        
Al       Al0    0.194318     0.9486       0.124599     1.4        
Si       Si0    0.0485356    0.80108      0.37794      2.4        
Al       Al0    0.294212     0.548009     0.1277       1.4        
Si       Si0    0.45669      0.80383      0.122722     2.4        
Al       Al0    0.19473      0.551498     0.376165     1.4        
Si       Si0    0.0475662    0.619576     0.193834     2.4        
Si       Si0    0.299329     0.873767     0.452136     2.4        
Si       Si0    0.452123     0.877434     0.199237     2.4        
Si       Si0    0.197471     0.626534     0.453769     2.4        
Si       Si0    0.0472929    0.876063     0.302241     2.4        
Si       Si0    0.296501     0.625539     0.0541846    2.4        
Si       Si0    0.448572     0.624856     0.30519      2.4        
Si       Si0    0.194601     0.876268     0.0549655    2.4        
Si       Si0    0.121311     0.704292     0.0528362    2.4        
Si       Si0    0.373219     0.943595     0.303671     2.4        
Si       Si0    0.37669      0.691309     0.455274     2.4        
Si       Si0    0.121144     0.948918     0.2034       2.4        
Si       Si0    0.372817     0.804468     0.0607627    2.4        
Si       Si0    0.120744     0.552205     0.302108     2.4        
Si       Si0    0.12596      0.801903     0.448983     2.4        
Si       Si0    0.369618     0.552897     0.203683     2.4        
Si       Si0    0.193032     0.558883     0.126678     2.4        
Si       Si0    0.450643     0.796451     0.378918     2.4        
Si       Si0    0.195889     0.946716     0.376838     2.4        
Si       Si0    0.451917     0.702986     0.130141     2.4        
Si       Si0    0.297302     0.550288     0.3799       2.4        
Al       Al0    0.0493412    0.805864     0.12254      1.4        
Si       Si0    0.297356     0.949135     0.129359     2.4        
Al       Al0    0.0513248    0.695181     0.371631     1.4        
O        O0    -0.0010494    0.604481     0.185351    -1.2        
O        O0     0.249278     0.861899     0.448791    -1.2        
O        O0     0.502719     0.902777     0.198637    -1.2        
O        O0     0.251276     0.638152     0.45254     -1.2        
O        O0     0.496418     0.605166     0.314459    -1.2        
O        O0     0.246695     0.863456     0.0626381   -1.2        
O        O0    -0.000402492  0.897698     0.307342    -1.2        
O        O0     0.244371     0.637006     0.0577946   -1.2        
O        O0     0.196506     0.505122     0.119907    -1.2        
O        O0     0.442368     0.744435     0.371994    -1.2        
O        O0     0.191218     0.996542     0.394693    -1.2        
O        O0     0.448851     0.754161     0.134262    -1.2        
O        O0     0.300705     1.00117      0.114382    -1.2        
O        O0     0.0536762    0.752881     0.364355    -1.2        
O        O0     0.300095     0.500495     0.3897      -1.2        
O        O0     0.0596246    0.74271      0.142277    -1.2        
O        O0     0.109144     0.702172     0.000235748 -1.2        
O        O0     0.366093     0.936941     0.251303    -1.2        
O        O0     0.389598     0.676458     0.504342    -1.2        
O        O0     0.138426     0.94292      0.250755    -1.2        
O        O0     0.11359      0.808743     0.499702    -1.2        
O        O0     0.351512     0.560553     0.2529      -1.2        
O        O0     0.378412     0.813052     0.00885988  -1.2        
O        O0     0.137469     0.56064      0.249963    -1.2        
O        O0     0.118052     0.497339     0.189083    -1.2        
O        O0     0.367276     0.744654     0.45222     -1.2        
O        O0     0.39228      0.998727     0.194478    -1.2        
O        O0     0.1398       0.74839      0.445143    -1.2        
O        O0     0.112083     0.997888     0.308807    -1.2        
O        O0     0.355971     0.754209     0.0663841   -1.2        
O        O0     0.385347     0.502409     0.309336    -1.2        
O        O0     0.130969     0.755081     0.0600392   -1.2        
O        O0    -0.00246677   0.692331     0.114903    -1.2        
O        O0     0.242868     0.936753     0.36462     -1.2        
O        O0     0.500578     0.685188     0.397529    -1.2        
O        O0     0.250276     0.936144     0.14393     -1.2        
O        O0     0.506004     0.806553     0.106521    -1.2        
O        O0     0.246287     0.559461     0.363545    -1.2        
O        O0    -0.00401357   0.810869     0.395797    -1.2        
O        O0     0.242242     0.569787     0.143274    -1.2        
O        O0     0.186535     0.61427      0.000184356 -1.2        
O        O0     0.441994     0.865055     0.24885     -1.2        
O        O0     0.187765     0.890296     0.50127     -1.2        
O        O0     0.446479     0.643632     0.257076    -1.2        
O        O0     0.307046     0.61091      0.508       -1.2        
O        O0     0.0511085    0.861172     0.250317    -1.2        
O        O0     0.307133     0.882105     0.00674631  -1.2        
O        O0     0.0543375    0.633948     0.243965    -1.2        
O        O0     0.077752     0.57653      0.186531    -1.2        
O        O0     0.0777247    0.579521     0.30685     -1.2        
O        O0     0.332093     0.837217     0.437284    -1.2        
O        O0     0.330967     0.835782     0.0748956   -1.2        
O        O0     0.412808     0.912301     0.183553    -1.2        
O        O0     0.403948     0.904782     0.318746    -1.2        
O        O0     0.16747      0.667587     0.438688    -1.2        
O        O0     0.159766     0.669564     0.0659808   -1.2        
O        O0     0.409773     0.588108     0.311279    -1.2        
O        O0     0.407397     0.588404     0.194194    -1.2        
O        O0     0.16274      0.835305     0.06128     -1.2        
O        O0     0.167944     0.831782     0.439787    -1.2        
O        O0     0.0831521    0.915418     0.311495    -1.2        
O        O0     0.0812067    0.917193     0.195421    -1.2        
O        O0     0.323685     0.666916     0.0653345   -1.2        
O        O0     0.335036     0.664521     0.444293    -1.2        
O        O0     0.178914     0.583832     0.0816175   -1.2        
O        O0     0.309876     0.586318     0.0883423   -1.2        
O        O0     0.444137     0.819138     0.333415    -1.2        
O        O0     0.0549771    0.832088     0.334046    -1.2        
O        O0     0.185777     0.913117     0.416644    -1.2        
O        O0     0.30814      0.915366     0.422363    -1.2        
O        O0     0.447582     0.68166      0.17911     -1.2        
O        O0     0.0613098    0.656282     0.158918    -1.2        
O        O0     0.307348     0.916741     0.0877986   -1.2        
O        O0     0.179773     0.912259     0.0874009   -1.2        
O        O0     0.0669515    0.662107     0.327615    -1.2        
O        O0     0.441252     0.665275     0.339308    -1.2        
O        O0     0.308724     0.584079     0.424359    -1.2        
O        O0     0.187124     0.586994     0.41997     -1.2        
O        O0     0.060125     0.839388     0.165672    -1.2        
O        O0     0.451369     0.834419     0.169394    -1.2        
O        O0     0.0788421    0.689253     0.0803306   -1.2        
O        O0     0.0821409    0.825154     0.0816114   -1.2        
O        O0     0.328066     0.935941     0.327712    -1.2        
O        O0     0.330474     0.558567     0.338268    -1.2        
O        O0     0.416307     0.677277     0.420209    -1.2        
O        O0     0.415841     0.81839      0.415149    -1.2        
O        O0     0.162634     0.939867     0.171027    -1.2        
O        O0     0.159461     0.568787     0.164022    -1.2        
O        O0     0.0853364    0.814086     0.415357    -1.2        
O        O0     0.0876629    0.679797     0.418442    -1.2        
O        O0     0.325396     0.557494     0.175004    -1.2        
O        O0     0.333824     0.943598     0.166224    -1.2        
O        O0     0.418507     0.819445     0.0862524   -1.2        
O        O0     0.413301     0.687306     0.0970887   -1.2        
O        O0     0.155034     0.568896     0.337294    -1.2        
O        O0     0.166074     0.937167     0.334862    -1.2        
Si       Si0    0.123574     0.556282     0.700235     2.4        
Al       Al0    0.373284     0.799678     0.956321     1.4        
Si       Si0    0.376688     0.948775     0.703496     2.4        
Si       Si0    0.126352     0.709435     0.949263     2.4        
Si       Si0    0.385332     0.551895     0.81343      2.4        
Si       Si0    0.125413     0.802491     0.552908     2.4        
Si       Si0    0.120621     0.94925      0.804295     2.4        
Al       Al0    0.377491     0.696991     0.55541      1.4        
Si       Si0    0.192525     0.623072     0.55615      2.4        
Al       Al0    0.443074     0.873467     0.8055       1.4        
Si       Si0    0.196131     0.879777     0.951608     2.4        
Al       Al0    0.444929     0.628146     0.706454     1.4        
Si       Si0    0.30335      0.871067     0.555139     2.4        
Si       Si0    0.0484888    0.624417     0.79931      2.4        
Si       Si0    0.298607     0.626347     0.952892     2.4        
Si       Si0    0.0489362    0.879024     0.700609     2.4        
Si       Si0    0.0476195    0.70134      0.628644     2.4        
Al       Al0    0.294331     0.951335     0.878361     1.4        
Si       Si0    0.452491     0.694462     0.885624     2.4        
Al       Al0    0.203197     0.943866     0.624801     1.4        
Si       Si0    0.0429578    0.80494      0.87432      2.4        
Al       Al0    0.30036      0.553215     0.633899     1.4        
Si       Si0    0.44586      0.802856     0.63103      2.4        
Al       Al0    0.19993      0.555392     0.873378     1.4        
Si       Si0    0.0462589    0.623179     0.69743      2.4        
Si       Si0    0.298754     0.870279     0.949866     2.4        
Si       Si0    0.445872     0.875597     0.703386     2.4        
Si       Si0    0.200107     0.634053     0.951853     2.4        
Si       Si0    0.045231     0.880863     0.803053     2.4        
Si       Si0    0.296315     0.626987     0.557998     2.4        
Si       Si0    0.450893     0.627136     0.810613     2.4        
Si       Si0    0.199699     0.871689     0.550866     2.4        
Si       Si0    0.123396     0.702277     0.556755     2.4        
Si       Si0    0.372213     0.946049     0.806265     2.4        
Si       Si0    0.3792       0.69268      0.956318     2.4        
Si       Si0    0.126847     0.946617     0.704873     2.4        
Si       Si0    0.377216     0.798764     0.55248      2.4        
Si       Si0    0.120213     0.553803     0.803656     2.4        
Si       Si0    0.119703     0.809206     0.947654     2.4        
Si       Si0    0.37601      0.551891     0.712442     2.4        
Si       Si0    0.19299      0.553313     0.630565     2.4        
Si       Si0    0.450768     0.801389     0.883813     2.4        
Si       Si0    0.196317     0.952223     0.878291     2.4        
Si       Si0    0.447252     0.698563     0.628741     2.4        
Si       Si0    0.304784     0.54912      0.880701     2.4        
Al       Al0    0.0518816    0.805176     0.626649     1.4        
Si       Si0    0.308388     0.942984     0.629973     2.4        
Al       Al0    0.0463947    0.699063     0.87333      1.4        
O        O0    -0.000970881  0.606487     0.693545    -1.2        
O        O0     0.245623     0.85799      0.949025    -1.2        
O        O0     0.498105     0.881409     0.69983     -1.2        
O        O0     0.251801     0.648739     0.949921    -1.2        
O        O0     0.504304     0.618646     0.814758    -1.2        
O        O0     0.251386     0.859806     0.559556    -1.2        
O        O0    -0.00351706   0.896171     0.806314    -1.2        
O        O0     0.246613     0.63196      0.560739    -1.2        
O        O0     0.18946      0.500848     0.618215    -1.2        
O        O0     0.436119     0.747936     0.876333    -1.2        
O        O0     0.195657     1.00451      0.88914     -1.2        
O        O0     0.439877     0.749531     0.640626    -1.2        
O        O0     0.315162     0.992465     0.615192    -1.2        
O        O0     0.0521079    0.757199     0.856749    -1.2        
O        O0     0.311963     0.502862     0.902245    -1.2        
O        O0     0.0585563    0.749121     0.642789    -1.2        
O        O0     0.112318     0.691887     0.504653    -1.2        
O        O0     0.363014     0.939996     0.754503    -1.2        
O        O0     0.391399     0.686158     1.00666     -1.2        
O        O0     0.141416     0.940609     0.755362    -1.2        
O        O0     0.109079     0.815365     1.00054     -1.2        
O        O0     0.369372     0.558589     0.764796    -1.2        
O        O0     0.393044     0.814604     0.506234    -1.2        
O        O0     0.132268     0.562754     0.751802    -1.2        
O        O0     0.115621     0.50326      0.694771    -1.2        
O        O0     0.361322     0.742252     0.948152    -1.2        
O        O0     0.387376     1.00181      0.698513    -1.2        
O        O0     0.138371     0.759192     0.942824    -1.2        
O        O0     0.113437     1.00139      0.807954    -1.2        
O        O0     0.364605     0.751001     0.562702    -1.2        
O        O0     0.396546     0.494353     0.816013    -1.2        
O        O0     0.133482     0.751774     0.560556    -1.2        
O        O0    -0.00455336   0.695278     0.614087    -1.2        
O        O0     0.243499     0.944039     0.853951    -1.2        
O        O0     0.504002     0.690203     0.893287    -1.2        
O        O0     0.257625     0.934844     0.640961    -1.2        
O        O0     0.495881     0.812541     0.61974     -1.2        
O        O0     0.258142     0.544488     0.854389    -1.2        
O        O0    -0.00957636   0.808119     0.889611    -1.2        
O        O0     0.243362     0.560838     0.639825    -1.2        
O        O0     0.183587     0.614077     0.50386     -1.2        
O        O0     0.433495     0.861263     0.752029    -1.2        
O        O0     0.188232     0.889465     1.00065     -1.2        
O        O0     0.439015     0.639924     0.762402    -1.2        
O        O0     0.304642     0.61272      1.00235     -1.2        
O        O0     0.0497476    0.868282     0.753849    -1.2        
O        O0     0.308005     0.887387     0.506396    -1.2        
O        O0     0.0552357    0.63382      0.74823     -1.2        
O        O0     0.0830619    0.584288     0.684922    -1.2        
O        O0     0.0814558    0.587139     0.81452     -1.2        
O        O0     0.327419     0.827733     0.93561     -1.2        
O        O0     0.330576     0.826452     0.563927    -1.2        
O        O0     0.419044     0.919918     0.692928    -1.2        
O        O0     0.405912     0.910281     0.823771    -1.2        
O        O0     0.168939     0.676413     0.944482    -1.2        
O        O0     0.166649     0.671367     0.567018    -1.2        
O        O0     0.425616     0.580902     0.826767    -1.2        
O        O0     0.410099     0.585664     0.693378    -1.2        
O        O0     0.166909     0.83096      0.561539    -1.2        
O        O0     0.160356     0.843304     0.935489    -1.2        
O        O0     0.0801803    0.918562     0.812949    -1.2        
O        O0     0.0822119    0.919597     0.69268     -1.2        
O        O0     0.320686     0.67111      0.564528    -1.2        
O        O0     0.338491     0.6601       0.941013    -1.2        
O        O0     0.179076     0.581427     0.586125    -1.2        
O        O0     0.317835     0.592656     0.592005    -1.2        
O        O0     0.443926     0.828138     0.83859     -1.2        
O        O0     0.0539268    0.837535     0.832214    -1.2        
O        O0     0.193283     0.92307      0.921899    -1.2        
O        O0     0.306056     0.916149     0.923407    -1.2        
O        O0     0.436607     0.667186     0.669633    -1.2        
O        O0     0.0587371    0.66544      0.667685    -1.2        
O        O0     0.320956     0.907544     0.588613    -1.2        
O        O0     0.190549     0.906736     0.588589    -1.2        
O        O0     0.0607464    0.667358     0.831601    -1.2        
O        O0     0.438242     0.662333     0.846253    -1.2        
O        O0     0.303442     0.586418     0.917948    -1.2        
O        O0     0.190366     0.600162     0.916604    -1.2        
O        O0     0.066174     0.838116     0.672847    -1.2        
O        O0     0.431904     0.83799      0.669385    -1.2        
O        O0     0.0824802    0.689842     0.590546    -1.2        
O        O0     0.0868542    0.818554     0.582286    -1.2        
O        O0     0.326717     0.937354     0.830529    -1.2        
O        O0     0.343451     0.557541     0.844214    -1.2        
O        O0     0.421687     0.684014     0.925912    -1.2        
O        O0     0.416133     0.819303     0.919098    -1.2        
O        O0     0.166623     0.92783      0.670908    -1.2        
O        O0     0.164541     0.566112     0.670872    -1.2        
O        O0     0.0774183    0.815567     0.916174    -1.2        
O        O0     0.0890537    0.694398     0.914069    -1.2        
O        O0     0.334568     0.561634     0.680596    -1.2        
O        O0     0.338186     0.932164     0.671302    -1.2        
O        O0     0.415053     0.813104     0.589641    -1.2        
O        O0     0.408963     0.680828     0.595427    -1.2        
O        O0     0.164304     0.565294     0.831359    -1.2        
O        O0     0.15746      0.939014     0.841494    -1.2        
Si       Si0    0.624069     0.050267     0.19766      2.4        
Al       Al0    0.87132      0.29964      0.452345     1.4        
Si       Si0    0.875096     0.445967     0.197309     2.4        
Si       Si0    0.625189     0.199153     0.450883     2.4        
Si       Si0    0.875842     0.0474024    0.305177     2.4        
Si       Si0    0.626104     0.298277     0.0563356    2.4        
Si       Si0    0.631777     0.447724     0.303399     2.4        
Al       Al0    0.874152     0.196697     0.0540792    1.4        
Si       Si0    0.69629      0.124541     0.0519049    2.4        
Al       Al0    0.946494     0.372084     0.3001       1.4        
Si       Si0    0.693929     0.374916     0.453015     2.4        
Al       Al0    0.946454     0.121739     0.204476     1.4        
Si       Si0    0.800375     0.370486     0.04941      2.4        
Si       Si0    0.552491     0.119621     0.29875      2.4        
Si       Si0    0.805044     0.11895      0.456202     2.4        
Si       Si0    0.552831     0.375652     0.202591     2.4        
Si       Si0    0.550771     0.198119     0.124284     2.4        
Al       Al0    0.799727     0.442336     0.376142     1.4        
Si       Si0    0.949703     0.193584     0.382789     2.4        
Al       Al0    0.69534      0.446212     0.123244     1.4        
Si       Si0    0.549625     0.30173      0.376918     2.4        
Al       Al0    0.797333     0.0530253    0.130924     1.4        
Si       Si0    0.953399     0.301247     0.120692     2.4        
Al       Al0    0.695874     0.0519165    0.371807     1.4        
Si       Si0    0.551161     0.122145     0.195236     2.4        
Si       Si0    0.793937     0.368448     0.449747     2.4        
Si       Si0    0.94977      0.377543     0.198412     2.4        
Si       Si0    0.700381     0.13137      0.451818     2.4        
Si       Si0    0.553603     0.376779     0.305212     2.4        
Si       Si0    0.797803     0.125646     0.0548175    2.4        
Si       Si0    0.945176     0.120913     0.30768      2.4        
Si       Si0    0.702687     0.366704     0.0464738    2.4        
Si       Si0    0.620507     0.195889     0.048912     2.4        
Si       Si0    0.872112     0.446013     0.298297     2.4        
Si       Si0    0.875329     0.192497     0.455218     2.4        
Si       Si0    0.631362     0.445018     0.203214     2.4        
Si       Si0    0.875599     0.300002     0.0505046    2.4        
Si       Si0    0.626731     0.049564     0.297876     2.4        
Si       Si0    0.617213     0.304407     0.451762     2.4        
Si       Si0    0.873681     0.0476278    0.201508     2.4        
Si       Si0    0.695259     0.0490625    0.120592     2.4        
Si       Si0    0.947236     0.29549      0.375019     2.4        
Si       Si0    0.697707     0.449631     0.38203      2.4        
Si       Si0    0.948971     0.198468     0.128727     2.4        
Si       Si0    0.803626     0.0463727    0.379084     2.4        
Al       Al0    0.550512     0.306393     0.123542     1.4        
Si       Si0    0.802937     0.444417     0.12121      2.4        
Al       Al0    0.549982     0.19398      0.371879     1.4        
O        O0     0.502796     0.109784     0.189089    -1.2        
O        O0     0.743579     0.361095     0.440489    -1.2        
O        O0     0.999128     0.395839     0.197582    -1.2        
O        O0     0.75515      0.137103     0.448014    -1.2        
O        O0     0.995015     0.10705      0.310749    -1.2        
O        O0     0.753456     0.351699     0.0543181   -1.2        
O        O0     0.507029     0.398967     0.30955     -1.2        
O        O0     0.746656     0.136241     0.0573187   -1.2        
O        O0     0.693213    -0.000904729  0.0999236   -1.2        
O        O0     0.947372     0.244426     0.363253    -1.2        
O        O0     0.693181     0.501306     0.398551    -1.2        
O        O0     0.949741     0.249836     0.13736     -1.2        
O        O0     0.80885      0.492009     0.109433    -1.2        
O        O0     0.56329      0.253229     0.363822    -1.2        
O        O0     0.80959     -0.00259874   0.393418    -1.2        
O        O0     0.559457     0.247302     0.140057    -1.2        
O        O0     0.607303     0.193749    -0.00530256  -1.2        
O        O0     0.858819     0.437787     0.249712    -1.2        
O        O0     0.892706     0.19087      0.50504     -1.2        
O        O0     0.647532     0.438259     0.252493    -1.2        
O        O0     0.606489     0.309538     0.507104    -1.2        
O        O0     0.864635     0.0503237    0.255091    -1.2        
O        O0     0.891191     0.300423     0.000662573 -1.2        
O        O0     0.637579     0.0570654    0.24801     -1.2        
O        O0     0.610106    -0.00226781   0.193665    -1.2        
O        O0     0.854244     0.241906     0.453284    -1.2        
O        O0     0.882783     0.498842     0.196608    -1.2        
O        O0     0.626548     0.251165     0.445545    -1.2        
O        O0     0.617901     0.499008     0.303088    -1.2        
O        O0     0.859368     0.250181     0.057779    -1.2        
O        O0     0.890569    -0.00343982   0.316987    -1.2        
O        O0     0.629063     0.244959     0.0610866   -1.2        
O        O0     0.499062     0.193879     0.117127    -1.2        
O        O0     0.746901     0.435906     0.367099    -1.2        
O        O0     0.998047     0.188929     0.400253    -1.2        
O        O0     0.751555     0.444272     0.14095     -1.2        
O        O0     1.00259      0.309921     0.104536    -1.2        
O        O0     0.754189     0.0584826    0.362487    -1.2        
O        O0     0.499586     0.304246     0.388951    -1.2        
O        O0     0.743465     0.0596833    0.134845    -1.2        
O        O0     0.689877     0.114025     0.00277936  -1.2        
O        O0     0.945453     0.360408     0.245975    -1.2        
O        O0     0.688688     0.383163     0.503947    -1.2        
O        O0     0.936784     0.141538     0.258291    -1.2        
O        O0     0.813096     0.10618      0.507838    -1.2        
O        O0     0.558264     0.357907     0.252162    -1.2        
O        O0     0.805842     0.386523    -0.00229894  -1.2        
O        O0     0.557691     0.137361     0.246952    -1.2        
O        O0     0.584574     0.0817586    0.185676    -1.2        
O        O0     0.584466     0.0789674    0.304323    -1.2        
O        O0     0.819704     0.322947     0.444178    -1.2        
O        O0     0.834774     0.331459     0.0583092   -1.2        
O        O0     0.917668     0.418157     0.187723    -1.2        
O        O0     0.912935     0.417151     0.316195    -1.2        
O        O0     0.675658     0.180492     0.445734    -1.2        
O        O0     0.662482     0.166487     0.058894    -1.2        
O        O0     0.915606     0.0790778    0.315443    -1.2        
O        O0     0.906808     0.0851678    0.187314    -1.2        
O        O0     0.671547     0.324654     0.0636841   -1.2        
O        O0     0.661499     0.334589     0.441582    -1.2        
O        O0     0.590956     0.415777     0.313498    -1.2        
O        O0     0.592401     0.411675     0.195162    -1.2        
O        O0     0.823751     0.169552     0.0591639   -1.2        
O        O0     0.840458     0.154329     0.447981    -1.2        
O        O0     0.682531     0.0869349    0.0829587   -1.2        
O        O0     0.816296     0.0981407    0.0964191   -1.2        
O        O0     0.937091     0.326186     0.332504    -1.2        
O        O0     0.562218     0.335235     0.339462    -1.2        
O        O0     0.682499     0.419523     0.425871    -1.2        
O        O0     0.813058     0.40233      0.416306    -1.2        
O        O0     0.939066     0.173381     0.172817    -1.2        
O        O0     0.564427     0.162371     0.163219    -1.2        
O        O0     0.808955     0.412752     0.0804368   -1.2        
O        O0     0.692004     0.406852     0.0793958   -1.2        
O        O0     0.566973     0.157481     0.331977    -1.2        
O        O0     0.937973     0.160473     0.344061    -1.2        
O        O0     0.811803     0.075596     0.423982    -1.2        
O        O0     0.681382     0.0931326    0.415699    -1.2        
O        O0     0.55896      0.335977     0.170575    -1.2        
O        O0     0.943922     0.337075     0.158601    -1.2        
O        O0     0.577216     0.184075     0.0759386   -1.2        
O        O0     0.591601     0.318966     0.0895426   -1.2        
O        O0     0.834384     0.435443     0.330903    -1.2        
O        O0     0.83748      0.0566037    0.339628    -1.2        
O        O0     0.914326     0.188702     0.42127     -1.2        
O        O0     0.907579     0.309724     0.407561    -1.2        
O        O0     0.666742     0.438281     0.168295    -1.2        
O        O0     0.664524     0.0560338    0.164424    -1.2        
O        O0     0.579882     0.319079     0.419131    -1.2        
O        O0     0.594746     0.176054     0.414864    -1.2        
O        O0     0.828892     0.0563383    0.179228    -1.2        
O        O0     0.838525     0.432193     0.159561    -1.2        
O        O0     0.916887     0.307385     0.0814442   -1.2        
O        O0     0.914048     0.182605     0.091396    -1.2        
O        O0     0.660202     0.0672647    0.330984    -1.2        
O        O0     0.667534     0.443626     0.342821    -1.2        
Si       Si0    0.618067     0.0504506    0.701064     2.4        
Al       Al0    0.867864     0.294076     0.948733     1.4        
Si       Si0    0.873937     0.443838     0.699471     2.4        
Si       Si0    0.624838     0.200156     0.946053     2.4        
Si       Si0    0.877521     0.0469219    0.804865     2.4        
Si       Si0    0.626134     0.298113     0.55655      2.4        
Si       Si0    0.62478      0.450254     0.803667     2.4        
Al       Al0    0.878352     0.208034     0.556519     1.4        
Si       Si0    0.696724     0.123929     0.55441      2.4        
Al       Al0    0.945424     0.368724     0.803997     1.4        
Si       Si0    0.694378     0.376998     0.946444     2.4        
Al       Al0    0.945397     0.12328      0.697726     1.4        
Si       Si0    0.797478     0.375247     0.551149     2.4        
Si       Si0    0.547918     0.127912     0.797644     2.4        
Si       Si0    0.803724     0.118854     0.955053     2.4        
Si       Si0    0.549244     0.377075     0.706357     2.4        
Si       Si0    0.547932     0.197089     0.626485     2.4        
Al       Al0    0.797176     0.44988      0.876523     1.4        
Si       Si0    0.94876      0.185985     0.879764     2.4        
Al       Al0    0.696472     0.445387     0.627712     1.4        
Si       Si0    0.548575     0.305226     0.883425     2.4        
Al       Al0    0.791542     0.0558668    0.634203     1.4        
Si       Si0    0.953465     0.305384     0.626337     2.4        
Al       Al0    0.70223      0.0532458    0.878704     1.4        
Si       Si0    0.542619     0.119205     0.697834     2.4        
Si       Si0    0.796716     0.371751     0.946475     2.4        
Si       Si0    0.946678     0.374246     0.701035     2.4        
Si       Si0    0.702049     0.129688     0.953289     2.4        
Si       Si0    0.548955     0.381425     0.809373     2.4        
Si       Si0    0.801987     0.127224     0.556571     2.4        
Si       Si0    0.949215     0.117582     0.800569     2.4        
Si       Si0    0.700222     0.368391     0.55536      2.4        
Si       Si0    0.622735     0.197549     0.554462     2.4        
Si       Si0    0.868713     0.441797     0.80501      2.4        
Si       Si0    0.875455     0.192539     0.953361     2.4        
Si       Si0    0.615262     0.454224     0.703469     2.4        
Si       Si0    0.875948     0.309134     0.553658     2.4        
Si       Si0    0.62392      0.0508498    0.79992      2.4        
Si       Si0    0.624027     0.30455      0.951765     2.4        
Si       Si0    0.868042     0.052717     0.704402     2.4        
Si       Si0    0.691138     0.0500647    0.628042     2.4        
Si       Si0    0.94837      0.292072     0.875094     2.4        
Si       Si0    0.696322     0.450012     0.880555     2.4        
Si       Si0    0.953717     0.202801     0.631153     2.4        
Si       Si0    0.803117     0.050281     0.875247     2.4        
Al       Al0    0.552725     0.299578     0.634165     1.4        
Si       Si0    0.796222     0.442868     0.632196     2.4        
Al       Al0    0.554549     0.200213     0.871832     1.4        
O        O0     0.496125     0.0981625    0.691647    -1.2        
O        O0     0.744733     0.364391     0.937456    -1.2        
O        O0     0.998393     0.391435     0.700466    -1.2        
O        O0     0.754676     0.135471     0.954391    -1.2        
O        O0     0.999874     0.110744     0.806646    -1.2        
O        O0     0.748929     0.351114     0.556679    -1.2        
O        O0     0.501816     0.402947     0.817619    -1.2        
O        O0     0.749877     0.135381     0.560916    -1.2        
O        O0     0.684617     0.000309865  0.615129    -1.2        
O        O0     0.946833     0.237425     0.866931    -1.2        
O        O0     0.691937     0.498415     0.898287    -1.2        
O        O0     0.947848     0.253842     0.6404      -1.2        
O        O0     0.801044     0.494137     0.617058    -1.2        
O        O0     0.561572     0.256891     0.863326    -1.2        
O        O0     0.815361    -0.00181078   0.8845      -1.2        
O        O0     0.55655      0.242781     0.651242    -1.2        
O        O0     0.61093      0.191363     0.500892    -1.2        
O        O0     0.86224      0.433238     0.751571    -1.2        
O        O0     0.89173      0.188527     1.00181     -1.2        
O        O0     0.635499     0.442282     0.752155    -1.2        
O        O0     0.614873     0.310634     1.00524     -1.2        
O        O0     0.8628       0.0551273    0.756466    -1.2        
O        O0     0.890637     0.318375     0.502401    -1.2        
O        O0     0.637631     0.0557364    0.748949    -1.2        
O        O0     0.606533     1.01535e-05  0.696274    -1.2        
O        O0     0.855187     0.240003     0.941095    -1.2        
O        O0     0.881015     0.498226     0.696098    -1.2        
O        O0     0.633427     0.251632     0.939404    -1.2        
O        O0     0.608477     0.503483     0.81083     -1.2        
O        O0     0.862758     0.259008     0.557374    -1.2        
O        O0     0.877222    -0.00605785   0.810351    -1.2        
O        O0     0.637482     0.246763     0.560975    -1.2        
O        O0     0.494868     0.194168     0.60988     -1.2        
O        O0     0.744292     0.436302     0.870901    -1.2        
O        O0     1.00029      0.1741       0.892371    -1.2        
O        O0     0.746985     0.438621     0.656586    -1.2        
O        O0     1.00288      0.307637     0.613251    -1.2        
O        O0     0.755572     0.0583908    0.85636     -1.2        
O        O0     0.497783     0.306618     0.90004     -1.2        
O        O0     0.737764     0.0591388    0.649534    -1.2        
O        O0     0.691541     0.117887     0.501904    -1.2        
O        O0     0.937084     0.353237     0.750436    -1.2        
O        O0     0.688635     0.384108     0.997958    -1.2        
O        O0     0.939878     0.13248      0.751674    -1.2        
O        O0     0.806618     0.100399     1.00677     -1.2        
O        O0     0.551247     0.364352     0.758676    -1.2        
O        O0     0.802377     0.386203     0.499382    -1.2        
O        O0     0.545488     0.135243     0.747434    -1.2        
O        O0     0.578558     0.0839239    0.691748    -1.2        
O        O0     0.586188     0.0866859    0.806358    -1.2        
O        O0     0.826107     0.329322     0.936026    -1.2        
O        O0     0.836398     0.341928     0.566287    -1.2        
O        O0     0.914495     0.413518     0.689228    -1.2        
O        O0     0.901571     0.403583     0.821514    -1.2        
O        O0     0.673169     0.172459     0.942087    -1.2        
O        O0     0.660259     0.162746     0.567133    -1.2        
O        O0     0.922346     0.0731261    0.809143    -1.2        
O        O0     0.904205     0.0863124    0.683112    -1.2        
O        O0     0.670083     0.325404     0.560733    -1.2        
O        O0     0.663607     0.33499      0.935964    -1.2        
O        O0     0.586744     0.420849     0.815621    -1.2        
O        O0     0.574269     0.421283     0.699188    -1.2        
O        O0     0.833454     0.164778     0.575983    -1.2        
O        O0     0.83627      0.1572       0.948036    -1.2        
O        O0     0.685552     0.0836916    0.584397    -1.2        
O        O0     0.813578     0.0871769    0.589941    -1.2        
O        O0     0.934306     0.312972     0.830018    -1.2        
O        O0     0.553767     0.338682     0.84329     -1.2        
O        O0     0.678301     0.416823     0.915661    -1.2        
O        O0     0.813284     0.409587     0.917997    -1.2        
O        O0     0.934938     0.172033     0.668405    -1.2        
O        O0     0.551646     0.157327     0.663914    -1.2        
O        O0     0.79893      0.416409     0.585349    -1.2        
O        O0     0.689951     0.403589     0.591079    -1.2        
O        O0     0.560148     0.174518     0.822632    -1.2        
O        O0     0.934705     0.156865     0.835056    -1.2        
O        O0     0.810273     0.0805925    0.919443    -1.2        
O        O0     0.689213     0.0931319    0.917366    -1.2        
O        O0     0.575012     0.337905     0.677031    -1.2        
O        O0     0.939923     0.336883     0.66633     -1.2        
O        O0     0.578734     0.188564     0.58283     -1.2        
O        O0     0.591215     0.312034     0.591995    -1.2        
O        O0     0.825114     0.436664     0.829901    -1.2        
O        O0     0.841398     0.064648     0.840511    -1.2        
O        O0     0.915313     0.181763     0.919489    -1.2        
O        O0     0.918376     0.301417     0.914773    -1.2        
O        O0     0.651099     0.439865     0.667047    -1.2        
O        O0     0.655097     0.059307     0.66397     -1.2        
O        O0     0.580161     0.316032     0.926256    -1.2        
O        O0     0.594686     0.18073      0.906764    -1.2        
O        O0     0.819945     0.057707     0.68191     -1.2        
O        O0     0.833191     0.429712     0.665923    -1.2        
O        O0     0.91936      0.315347     0.587724    -1.2        
O        O0     0.921554     0.190847     0.588977    -1.2        
O        O0     0.664708     0.0607191    0.831237    -1.2        
O        O0     0.666836     0.442289     0.836023    -1.2        
Si       Si0    0.624073     0.548493     0.196451     2.4        
Al       Al0    0.87605      0.801385     0.452629     1.4        
Si       Si0    0.876115     0.950316     0.199349     2.4        
Si       Si0    0.629618     0.696827     0.449897     2.4        
Si       Si0    0.878674     0.55077      0.301813     2.4        
Si       Si0    0.630686     0.800988     0.0553191    2.4        
Si       Si0    0.624952     0.949804     0.304192     2.4        
Al       Al0    0.876185     0.697329     0.0510522    1.4        
Si       Si0    0.701693     0.625288     0.0525171    2.4        
Al       Al0    0.946256     0.875961     0.298046     1.4        
Si       Si0    0.694571     0.873366     0.451971     2.4        
Al       Al0    0.941112     0.622212     0.196497     1.4        
Si       Si0    0.801178     0.879245     0.051333     2.4        
Si       Si0    0.546509     0.618611     0.302478     2.4        
Si       Si0    0.806284     0.624298     0.451414     2.4        
Si       Si0    0.550112     0.878424     0.206823     2.4        
Si       Si0    0.55193      0.693903     0.123851     2.4        
Al       Al0    0.79816      0.94657      0.375499     1.4        
Si       Si0    0.947906     0.696712     0.373733     2.4        
Al       Al0    0.700767     0.948362     0.127923     1.4        
Si       Si0    0.548231     0.800231     0.381286     2.4        
Al       Al0    0.799744     0.545862     0.125807     1.4        
Si       Si0    0.948174     0.802218     0.124629     2.4        
Al       Al0    0.700884     0.549301     0.371383     1.4        
Si       Si0    0.549449     0.616872     0.196997     2.4        
Si       Si0    0.796634     0.875921     0.453172     2.4        
Si       Si0    0.948624     0.873911     0.198617     2.4        
Si       Si0    0.703741     0.627007     0.44919      2.4        
Si       Si0    0.549638     0.876903     0.309371     2.4        
Si       Si0    0.800808     0.620646     0.0554981    2.4        
Si       Si0    0.948651     0.627375     0.300852     2.4        
Si       Si0    0.705785     0.872726     0.0521784    2.4        
Si       Si0    0.626806     0.697696     0.052978     2.4        
Si       Si0    0.871107     0.948922     0.301273     2.4        
Si       Si0    0.874977     0.69754      0.447858     2.4        
Si       Si0    0.626604     0.950351     0.205414     2.4        
Si       Si0    0.873418     0.801738     0.0479436    2.4        
Si       Si0    0.625671     0.549024     0.299484     2.4        
Si       Si0    0.620683     0.801369     0.452826     2.4        
Si       Si0    0.870407     0.551908     0.199892     2.4        
Si       Si0    0.695594     0.545583     0.11648      2.4        
Si       Si0    0.949672     0.801315     0.376167     2.4        
Si       Si0    0.692717     0.950567     0.379686     2.4        
Si       Si0    0.948672     0.700922     0.12857      2.4        
Si       Si0    0.803437     0.549518     0.375078     2.4        
Al       Al0    0.557675     0.802226     0.13013      1.4        
Si       Si0    0.801332     0.951319     0.126757     2.4        
Al       Al0    0.554053     0.695632     0.376623     1.4        
O        O0     0.499727     0.605993     0.186065    -1.2        
O        O0     0.746434     0.865041     0.444135    -1.2        
O        O0     0.998412     0.887926     0.193734    -1.2        
O        O0     0.755694     0.637962     0.443726    -1.2        
O        O0     0.998899     0.615767     0.307716    -1.2        
O        O0     0.753687     0.863186     0.0617913   -1.2        
O        O0     0.498599     0.893117     0.317536    -1.2        
O        O0     0.752671     0.637057     0.0639932   -1.2        
O        O0     0.68127      0.495397     0.0987459   -1.2        
O        O0     0.94697      0.748929     0.365857    -1.2        
O        O0     0.684224     1.00089      0.390948    -1.2        
O        O0     0.942478     0.750992     0.142523    -1.2        
O        O0     0.812744     1.00345      0.109783    -1.2        
O        O0     0.561937     0.750115     0.36892     -1.2        
O        O0     0.80712      0.499966     0.391984    -1.2        
O        O0     0.560632     0.743974     0.140275    -1.2        
O        O0     0.613495     0.691784     0.00271481  -1.2        
O        O0     0.863278     0.950488     0.249665    -1.2        
O        O0     0.891279     0.695497     0.496756    -1.2        
O        O0     0.640712     0.944617     0.254218    -1.2        
O        O0     0.61347      0.809087     0.502449    -1.2        
O        O0     0.861932     0.561663     0.252529    -1.2        
O        O0     0.891048     0.812299    -0.00239301  -1.2        
O        O0     0.639217     0.56379      0.246266    -1.2        
O        O0     0.61366      0.498382     0.196676    -1.2        
O        O0     0.856213     0.746824     0.448054    -1.2        
O        O0     0.891947     1.00066      0.189589    -1.2        
O        O0     0.631613     0.748949     0.442985    -1.2        
O        O0     0.613909     1.00023      0.310526    -1.2        
O        O0     0.852966     0.752035     0.0489484   -1.2        
O        O0     0.894053     0.499642     0.30225     -1.2        
O        O0     0.641157     0.748855     0.058077    -1.2        
O        O0     0.500786     0.689551     0.11356     -1.2        
O        O0     0.743597     0.943027     0.366103    -1.2        
O        O0     0.995856     0.683031     0.386411    -1.2        
O        O0     0.75265      0.944456     0.140213    -1.2        
O        O0     0.996182     0.809822     0.110382    -1.2        
O        O0     0.753283     0.557374     0.360778    -1.2        
O        O0     0.499844     0.804467     0.399314    -1.2        
O        O0     0.745421     0.548367     0.134596    -1.2        
O        O0     0.699358     0.611402     0.000865339 -1.2        
O        O0     0.938606     0.858758     0.246489    -1.2        
O        O0     0.690906     0.885263     0.504048    -1.2        
O        O0     0.936896     0.633595     0.251794    -1.2        
O        O0     0.812408     0.608219     0.502434    -1.2        
O        O0     0.552696     0.860572     0.257094    -1.2        
O        O0     0.800453     0.892383    -0.000334026 -1.2        
O        O0     0.554264     0.628271     0.250332    -1.2        
O        O0     0.581903     0.578861     0.185651    -1.2        
O        O0     0.577315     0.575968     0.311       -1.2        
O        O0     0.826021     0.832438     0.452297    -1.2        
O        O0     0.835446     0.83709      0.0592145   -1.2        
O        O0     0.91735      0.91414      0.189355    -1.2        
O        O0     0.904423     0.911529     0.308219    -1.2        
O        O0     0.676594     0.673368     0.440764    -1.2        
O        O0     0.668485     0.666628     0.0614127   -1.2        
O        O0     0.918062     0.586808     0.316705    -1.2        
O        O0     0.906859     0.583184     0.179446    -1.2        
O        O0     0.675925     0.827474     0.0579451   -1.2        
O        O0     0.665295     0.830646     0.44014     -1.2        
O        O0     0.582266     0.919985     0.312474    -1.2        
O        O0     0.588768     0.913462     0.195705    -1.2        
O        O0     0.834259     0.65935      0.0648589   -1.2        
O        O0     0.833721     0.668556     0.440802    -1.2        
O        O0     0.688732     0.583076     0.0824354   -1.2        
O        O0     0.815236     0.582803     0.0896263   -1.2        
O        O0     0.944903     0.829311     0.330029    -1.2        
O        O0     0.55994      0.836383     0.341896    -1.2        
O        O0     0.67913      0.918433     0.420321    -1.2        
O        O0     0.818005     0.909695     0.414625    -1.2        
O        O0     0.930413     0.666834     0.164611    -1.2        
O        O0     0.561492     0.659498     0.167053    -1.2        
O        O0     0.811301     0.92073      0.0848373   -1.2        
O        O0     0.689883     0.908142     0.0849232   -1.2        
O        O0     0.564708     0.660511     0.330163    -1.2        
O        O0     0.935612     0.673431     0.329       -1.2        
O        O0     0.815635     0.584768     0.416506    -1.2        
O        O0     0.689104     0.589176     0.418992    -1.2        
O        O0     0.557546     0.836375     0.173055    -1.2        
O        O0     0.936928     0.835374     0.16661     -1.2        
O        O0     0.583961     0.683322     0.0832271   -1.2        
O        O0     0.597211     0.813522     0.0940977   -1.2        
O        O0     0.821983     0.94034      0.322413    -1.2        
O        O0     0.836133     0.55635      0.333637    -1.2        
O        O0     0.912858     0.68807      0.414435    -1.2        
O        O0     0.909        0.815601     0.408013    -1.2        
O        O0     0.665617     0.939733     0.17201     -1.2        
O        O0     0.661622     0.554518     0.158825    -1.2        
O        O0     0.578857     0.815144     0.423757    -1.2        
O        O0     0.595993     0.674685     0.41406     -1.2        
O        O0     0.824607     0.55883      0.176258    -1.2        
O        O0     0.834493     0.93794      0.166661    -1.2        
O        O0     0.914294     0.807952     0.0852857   -1.2        
O        O0     0.915967     0.691661     0.0874683   -1.2        
O        O0     0.662063     0.564857     0.333811    -1.2        
O        O0     0.664092     0.935318     0.33607     -1.2        
Si       Si0    0.625139     0.557861     0.700492     2.4        
Al       Al0    0.867764     0.801242     0.946998     1.4        
Si       Si0    0.873843     0.951166     0.695649     2.4        
Si       Si0    0.630468     0.695992     0.953734     2.4        
Si       Si0    0.872272     0.547564     0.804379     2.4        
Si       Si0    0.627496     0.799478     0.552537     2.4        
Si       Si0    0.621583     0.950986     0.804555     2.4        
Al       Al0    0.870725     0.704969     0.550085     1.4        
Si       Si0    0.700815     0.624974     0.550304     2.4        
Al       Al0    0.944491     0.878465     0.802648     1.4        
Si       Si0    0.696976     0.876622     0.950543     2.4        
Al       Al0    0.943463     0.624804     0.698261     1.4        
Si       Si0    0.800104     0.879764     0.551314     2.4        
Si       Si0    0.55203      0.632195     0.800475     2.4        
Si       Si0    0.803204     0.619933     0.951827     2.4        
Si       Si0    0.551808     0.872959     0.706828     2.4        
Si       Si0    0.549536     0.699707     0.620103     2.4        
Al       Al0    0.803016     0.946755     0.873762     1.4        
Si       Si0    0.945403     0.698692     0.877595     2.4        
Al       Al0    0.69316      0.945239     0.629763     1.4        
Si       Si0    0.551684     0.803623     0.881521     2.4        
Al       Al0    0.799275     0.549377     0.624595     1.4        
Si       Si0    0.948791     0.800758     0.624555     2.4        
Al       Al0    0.699379     0.557428     0.879084     1.4        
Si       Si0    0.551018     0.631804     0.697685     2.4        
Si       Si0    0.798707     0.874061     0.950399     2.4        
Si       Si0    0.947819     0.879119     0.694733     2.4        
Si       Si0    0.702475     0.628587     0.951694     2.4        
Si       Si0    0.547165     0.879888     0.806336     2.4        
Si       Si0    0.804714     0.624876     0.554326     2.4        
Si       Si0    0.946215     0.621533     0.802166     2.4        
Si       Si0    0.702939     0.869816     0.55314      2.4        
Si       Si0    0.622047     0.694787     0.550223     2.4        
Si       Si0    0.867541     0.943993     0.800184     2.4        
Si       Si0    0.875465     0.697788     0.951525     2.4        
Si       Si0    0.619208     0.948311     0.704732     2.4        
Si       Si0    0.873816     0.805945     0.552352     2.4        
Si       Si0    0.625658     0.554262     0.798817     2.4        
Si       Si0    0.623998     0.800713     0.955227     2.4        
Si       Si0    0.864883     0.548073     0.701468     2.4        
Si       Si0    0.698511     0.546792     0.622716     2.4        
Si       Si0    0.938748     0.800661     0.870478     2.4        
Si       Si0    0.696977     0.949872     0.877786     2.4        
Si       Si0    0.946371     0.703865     0.627743     2.4        
Si       Si0    0.802843     0.550227     0.880983     2.4        
Al       Al0    0.550347     0.800617     0.625392     1.4        
Si       Si0    0.796075     0.952266     0.62868      2.4        
Al       Al0    0.559096     0.695939     0.884348     1.4        
O        O0     0.503304     0.614765     0.694094    -1.2        
O        O0     0.746731     0.861577     0.939721    -1.2        
O        O0     0.996574     0.889682     0.688708    -1.2        
O        O0     0.754451     0.634226     0.939325    -1.2        
O        O0     0.996974     0.607689     0.806922    -1.2        
O        O0     0.755352     0.854109     0.554376    -1.2        
O        O0     0.496743     0.894943     0.809809    -1.2        
O        O0     0.751665     0.632236     0.561549    -1.2        
O        O0     0.692366     0.497826     0.607556    -1.2        
O        O0     0.934254     0.747989     0.858075    -1.2        
O        O0     0.695816     0.99909      0.891647    -1.2        
O        O0     0.940723     0.75173      0.643276    -1.2        
O        O0     0.799855     1.0032       0.614004    -1.2        
O        O0     0.564492     0.754634     0.862299    -1.2        
O        O0     0.80541      0.500952     0.896331    -1.2        
O        O0     0.558266     0.747635     0.634409    -1.2        
O        O0     0.610704     0.686528     0.500728    -1.2        
O        O0     0.865247     0.937489     0.746828    -1.2        
O        O0     0.89695      0.689982     0.996779    -1.2        
O        O0     0.635527     0.942895     0.753992    -1.2        
O        O0     0.610587     0.807098     1.00651     -1.2        
O        O0     0.854007     0.553964     0.754415    -1.2        
O        O0     0.894396     0.810769     0.503998    -1.2        
O        O0     0.643565     0.562663     0.749669    -1.2        
O        O0     0.603906     0.507584     0.700913    -1.2        
O        O0     0.85298      0.745624     0.949265    -1.2        
O        O0     0.881832     1.00389      0.695245    -1.2        
O        O0     0.635754     0.750547     0.944225    -1.2        
O        O0     0.608527     1.00032      0.806594    -1.2        
O        O0     0.852395     0.757651     0.552573    -1.2        
O        O0     0.884545     0.492504     0.814328    -1.2        
O        O0     0.63552      0.746935     0.556419    -1.2        
O        O0     0.497953     0.692162     0.612384    -1.2        
O        O0     0.747395     0.938278     0.865806    -1.2        
O        O0     0.991598     0.693969     0.898648    -1.2        
O        O0     0.74684      0.943657     0.648468    -1.2        
O        O0     0.997844     0.806376     0.608756    -1.2        
O        O0     0.755329     0.562827     0.869221    -1.2        
O        O0     0.501272     0.804091     0.897582    -1.2        
O        O0     0.745163     0.561132     0.639665    -1.2        
O        O0     0.698225     0.614312     0.49897     -1.2        
O        O0     0.937437     0.866128     0.744971    -1.2        
O        O0     0.699978     0.889051     1.00094     -1.2        
O        O0     0.941212     0.642758     0.754212    -1.2        
O        O0     0.804117     0.607562     1.00392     -1.2        
O        O0     0.561219     0.863381     0.758354    -1.2        
O        O0     0.804514     0.896262     0.500981    -1.2        
O        O0     0.55379      0.649894     0.750498    -1.2        
O        O0     0.588153     0.593711     0.694171    -1.2        
O        O0     0.586366     0.591942     0.808886    -1.2        
O        O0     0.823225     0.828294     0.948497    -1.2        
O        O0     0.837177     0.843274     0.560266    -1.2        
O        O0     0.913746     0.918944     0.680681    -1.2        
O        O0     0.903842     0.911103     0.820926    -1.2        
O        O0     0.67827      0.672995     0.947079    -1.2        
O        O0     0.666063     0.661929     0.559555    -1.2        
O        O0     0.913624     0.580893     0.80937     -1.2        
O        O0     0.899275     0.581548     0.682231    -1.2        
O        O0     0.672126     0.827928     0.563073    -1.2        
O        O0     0.661237     0.835297     0.94413     -1.2        
O        O0     0.581889     0.918853     0.815814    -1.2        
O        O0     0.577267     0.917005     0.698319    -1.2        
O        O0     0.830812     0.669192     0.557704    -1.2        
O        O0     0.836088     0.662557     0.945799    -1.2        
O        O0     0.687544     0.58175      0.579755    -1.2        
O        O0     0.823665     0.591032     0.587561    -1.2        
O        O0     0.936515     0.826292     0.826615    -1.2        
O        O0     0.557141     0.838935     0.841872    -1.2        
O        O0     0.683117     0.917104     0.919909    -1.2        
O        O0     0.820766     0.909423     0.915745    -1.2        
O        O0     0.927067     0.665371     0.661277    -1.2        
O        O0     0.563695     0.667397     0.662228    -1.2        
O        O0     0.80396      0.921047     0.585349    -1.2        
O        O0     0.694322     0.910038     0.585089    -1.2        
O        O0     0.568466     0.670354     0.829251    -1.2        
O        O0     0.936464     0.66118      0.840636    -1.2        
O        O0     0.821477     0.580959     0.922138    -1.2        
O        O0     0.679348     0.5953       0.918157    -1.2        
O        O0     0.569416     0.836137     0.675363    -1.2        
O        O0     0.939961     0.835247     0.664689    -1.2        
O        O0     0.580771     0.686539     0.580869    -1.2        
O        O0     0.590674     0.81582      0.585322    -1.2        
O        O0     0.82101      0.931422     0.819664    -1.2        
O        O0     0.836723     0.560187     0.842542    -1.2        
O        O0     0.911111     0.689732     0.917129    -1.2        
O        O0     0.900173     0.816593     0.900997    -1.2        
O        O0     0.65556      0.93189      0.672211    -1.2        
O        O0     0.662677     0.561672     0.663574    -1.2        
O        O0     0.584176     0.811968     0.922464    -1.2        
O        O0     0.598514     0.675473     0.92124     -1.2        
O        O0     0.819862     0.554481     0.678278    -1.2        
O        O0     0.833899     0.942058     0.662581    -1.2        
O        O0     0.914311     0.80849      0.585596    -1.2        
O        O0     0.911068     0.694787     0.587405    -1.2        
O        O0     0.66494      0.567286     0.834355    -1.2        
O        O0     0.663022     0.942128     0.834851    -1.2        


