data_zeol_rho_i43m_01_222
_audit_creation_method RASPA-1.0
_audit_creation_date 2013-12-9
_audit_author_name 'Salvador Rodriguez Gomez Balestra'

_cell_length_a    29.5
_cell_length_b    29.5
_cell_length_c    29.5
_cell_angle_alpha 90.0
_cell_angle_beta  90.0
_cell_angle_gamma 90.0

_symmetry_cell_setting          triclinic
_symmetry_space_group_name_Hall 'P 1'
_symmetry_space_group_name_H-M  'P 1'
_symmetry_Int_Tables_number     1

_symmetry_equiv_pos_as_xyz 'x,y,z'

loop_
_atom_site_label
_atom_site_type_symbol
_atom_site_fract_x
_atom_site_fract_y
_atom_site_fract_z
_atom_site_charge
Si       Si0    0.109682     0.0416865    0.184454     2.4        
O        O0    -0.0197137    0.102747     0.177612    -1.2        
Al       Al0    0.367123     0.297447     0.435231     1.4        
O        O0     0.236493     0.354951     0.441162    -1.2        
Si       Si0    0.386302     0.460349     0.184455     2.4        
O        O0     0.512585     0.396542     0.18628     -1.2        
Si       Si0    0.133035     0.210978     0.435877     2.4        
O        O0     0.26011      0.149219     0.441522    -1.2        
Si       Si0    0.3904       0.042044     0.309306     2.4        
O        O0     0.513555     0.107214     0.313024    -1.2        
Si       Si0    0.132274     0.297228     0.0608555    2.4        
O        O0     0.259325     0.352106     0.0524108   -1.2        
Si       Si0    0.109856     0.467458     0.316798     2.4        
O        O0    -0.0134112    0.406078     0.315846    -1.2        
Al       Al0    0.369388     0.20967      0.0586172    1.4        
O        O0     0.241361     0.142988     0.0612532   -1.2        
Si       Si0    0.193582     0.122034     0.0482308    2.4        
O        O0     0.2001      -0.00286473   0.121229    -1.2        
Al       Al0    0.439997     0.372002     0.293115     1.4        
O        O0     0.445827     0.239863     0.352787    -1.2        
Si       Si0    0.192464     0.381712     0.453633     2.4        
O        O0     0.204281     0.510711     0.401411    -1.2        
Al       Al0    0.442668     0.128197     0.201856     1.4        
O        O0     0.445781     0.262889     0.139452    -1.2        
Si       Si0    0.304844     0.382387     0.0420106    2.4        
O        O0     0.306112     0.511524     0.104906    -1.2        
Si       Si0    0.0528333    0.130286     0.291221     2.4        
O        O0     0.0508966    0.269106     0.347012    -1.2        
Si       Si0    0.305669     0.118756     0.44914      2.4        
O        O0     0.298858    -0.00519577   0.37638     -1.2        
Si       Si0    0.056721     0.374926     0.209308     2.4        
O        O0     0.0519772    0.237284     0.15043     -1.2        
Si       Si0    0.0420853    0.193262     0.118938     2.4        
O        O0     0.114996     0.194175    -0.0110555   -1.2        
Al       Al0    0.287372     0.446397     0.359422     1.4        
O        O0     0.366507     0.44525      0.234268    -1.2        
Si       Si0    0.457149     0.192928     0.379739     2.4        
O        O0     0.389707     0.186507     0.507012    -1.2        
Al       Al0    0.208643     0.444339     0.139166     1.4        
O        O0     0.129822     0.451213     0.267856    -1.2        
Si       Si0    0.0384313    0.309356     0.382575     2.4        
O        O0     0.112613     0.308622     0.509722    -1.2        
Al       Al0    0.29151      0.061955     0.140476     1.4        
O        O0     0.378876     0.0596002    0.257603    -1.2        
Si       Si0    0.460112     0.311226     0.11517      2.4        
O        O0     0.38966      0.312859    -0.0130672   -1.2        
Al       Al0    0.212119     0.0624828    0.356657     1.4        
O        O0     0.127221     0.057658     0.234034    -1.2        
Si       Si0    0.0327797    0.110272     0.184729     2.4        
O        O0     0.111921    -0.0127841    0.186345    -1.2        
Si       Si0    0.28817      0.367754     0.438204     2.4        
O        O0     0.354578     0.235734     0.444704    -1.2        
Si       Si0    0.459809     0.389464     0.184308     2.4        
O        O0     0.392877     0.51414      0.185277    -1.2        
Si       Si0    0.207609     0.137248     0.435787     2.4        
O        O0     0.145077     0.263029     0.43944     -1.2        
Si       Si0    0.0366415    0.393164     0.316979     2.4        
O        O0     0.0980647    0.519713     0.311699    -1.2        
Si       Si0    0.294941     0.134005     0.059583     2.4        
O        O0     0.358563     0.265692     0.0513724   -1.2        
Si       Si0    0.460726     0.111136     0.312868     2.4        
O        O0     0.39086     -0.011974     0.306733    -1.2        
Si       Si0    0.208154     0.368102     0.0592885    2.4        
O        O0     0.141351     0.244405     0.0591664   -1.2        
Si       Si0    0.119455     0.195185     0.0444911    2.4        
O        O0    -0.0109867    0.195495     0.108998    -1.2        
Si       Si0    0.366986     0.441928     0.291537     2.4        
O        O0     0.231269     0.450602     0.344032    -1.2        
Si       Si0    0.381411     0.188855     0.452471     2.4        
O        O0     0.508832     0.194482     0.389837    -1.2        
Si       Si0    0.13325      0.444622     0.209747     2.4        
O        O0     0.264796     0.447628     0.155732    -1.2        
Si       Si0    0.38299      0.312887     0.0406586    2.4        
O        O0     0.511663     0.30937      0.106804    -1.2        
Si       Si0    0.129933     0.0636385    0.289978     2.4        
O        O0     0.266113     0.0628392    0.332147    -1.2        
Si       Si0    0.11836      0.308991     0.45389      2.4        
O        O0    -0.0130646    0.30533      0.396228    -1.2        
Si       Si0    0.371066     0.0589427    0.202937     2.4        
O        O0     0.233688     0.0708119    0.156505    -1.2        
Si       Si0    0.19138      0.0502549    0.123822     2.4        
O        O0     0.192745     0.117608    -0.00552231  -1.2        
Si       Si0    0.444848     0.294143     0.361923     2.4        
O        O0     0.444664     0.370856     0.234021    -1.2        
Si       Si0    0.192457     0.463026     0.380275     2.4        
O        O0     0.196223     0.389222     0.507962    -1.2        
Si       Si0    0.446811     0.209101     0.131927     2.4        
O        O0     0.446247     0.12394      0.261619    -1.2        
Si       Si0    0.304644     0.0471719    0.367775     2.4        
O        O0     0.304807     0.108434     0.503666    -1.2        
Al       Al0    0.0582472    0.295291     0.137542     1.4        
O        O0     0.0513258    0.375137     0.265001    -1.2        
Si       Si0    0.304416     0.458768     0.119075     2.4        
O        O0     0.30581      0.391696    -0.0129952   -1.2        
Al       Al0    0.0551251    0.208325     0.364008     1.4        
O        O0     0.0433422    0.127403     0.237098    -1.2        
O        O0     0.0617947    0.0626501    0.176537    -1.2        
O        O0     0.0993113    0.105854     0.302719    -1.2        
O        O0     0.313613     0.320143     0.436263    -1.2        
O        O0     0.348287     0.353656     0.0550695   -1.2        
O        O0     0.432645     0.434672     0.17386     -1.2        
O        O0     0.392214     0.398941     0.306678    -1.2        
O        O0     0.179159     0.181669     0.428716    -1.2        
O        O0     0.153758     0.155513     0.0625972   -1.2        
O        O0     0.436603     0.0646033    0.325411    -1.2        
O        O0     0.394971     0.100095     0.177853    -1.2        
O        O0     0.179208     0.323151     0.0647929   -1.2        
O        O0     0.150122     0.351895     0.440589    -1.2        
O        O0     0.0685685    0.435977     0.326592    -1.2        
O        O0     0.101674     0.403583     0.197086    -1.2        
O        O0     0.319082     0.181938     0.0623648   -1.2        
O        O0     0.347991     0.14889      0.439029    -1.2        
O        O0     0.191974     0.0748249    0.0746422   -1.2        
O        O0     0.313252     0.103053     0.102536    -1.2        
O        O0     0.453348     0.31942      0.313285    -1.2        
O        O0     0.0466409    0.354414     0.35351     -1.2        
O        O0     0.194974     0.427771     0.425181    -1.2        
O        O0     0.293339     0.404435     0.399552    -1.2        
O        O0     0.445775     0.182055     0.179488    -1.2        
O        O0     0.0484019    0.14827      0.149302    -1.2        
O        O0     0.301191     0.427309     0.073272    -1.2        
O        O0     0.204433     0.399626     0.102704    -1.2        
O        O0     0.0530645    0.181833     0.306342    -1.2        
O        O0     0.447173     0.151221     0.347419    -1.2        
O        O0     0.302113     0.0760103    0.414439    -1.2        
O        O0     0.202862     0.107156     0.392001    -1.2        
O        O0     0.0588191    0.322051     0.193834    -1.2        
O        O0     0.449585     0.352196     0.14763     -1.2        
O        O0     0.0726023    0.191127     0.0717565   -1.2        
O        O0     0.102842     0.307611     0.105624    -1.2        
O        O0     0.314849     0.442936     0.307431    -1.2        
O        O0     0.3499       0.0576093    0.342583    -1.2        
O        O0     0.427231     0.189252     0.425505    -1.2        
O        O0     0.400185     0.302343     0.388785    -1.2        
O        O0     0.185027     0.438361     0.198477    -1.2        
O        O0     0.146421     0.059557     0.148107    -1.2        
O        O0     0.0724809    0.30874      0.425962    -1.2        
O        O0     0.101433     0.203463     0.393293    -1.2        
O        O0     0.317769     0.0644905    0.19409     -1.2        
O        O0     0.349478     0.447883     0.147617    -1.2        
O        O0     0.429249     0.315427     0.0695871   -1.2        
O        O0     0.403064     0.191449     0.104484    -1.2        
O        O0     0.181198     0.0715899    0.302848    -1.2        
O        O0     0.146417     0.45953      0.354918    -1.2        
Si       Si0    0.112658     0.0433183    0.686112     2.4        
O        O0    -0.0143859    0.102965     0.679621    -1.2        
Al       Al0    0.368852     0.296604     0.93726      1.4        
O        O0     0.23769      0.361422     0.942564    -1.2        
Si       Si0    0.385757     0.46264      0.683133     2.4        
O        O0     0.512058     0.399212     0.685105    -1.2        
Si       Si0    0.135979     0.211589     0.939952     2.4        
O        O0     0.259961     0.140962     0.943404    -1.2        
Si       Si0    0.384565     0.0422648    0.811382     2.4        
O        O0     0.511885     0.107263     0.813402    -1.2        
Si       Si0    0.131796     0.294783     0.559116     2.4        
O        O0     0.259801     0.3546       0.555747    -1.2        
Si       Si0    0.111473     0.465745     0.81142      2.4        
O        O0    -0.0152789    0.408616     0.81544     -1.2        
Al       Al0    0.367294     0.20746      0.55505      1.4        
O        O0     0.239655     0.13979      0.552154    -1.2        
Si       Si0    0.191502     0.119052     0.540006     2.4        
O        O0     0.19929     -0.00581414   0.615343    -1.2        
Al       Al0    0.443691     0.371131     0.791603     1.4        
O        O0     0.446682     0.24052      0.854525    -1.2        
Si       Si0    0.192961     0.388152     0.954368     2.4        
O        O0     0.196945     0.513116     0.877999    -1.2        
Al       Al0    0.445057     0.127255     0.70076      1.4        
O        O0     0.445672     0.262524     0.639184    -1.2        
Si       Si0    0.303662     0.38259      0.544792     2.4        
O        O0     0.298136     0.511089     0.610552    -1.2        
Si       Si0    0.0536425    0.134364     0.791195     2.4        
O        O0     0.0541518    0.27176      0.847223    -1.2        
Si       Si0    0.306104     0.117983     0.955147     2.4        
O        O0     0.299874    -0.00820884   0.880172    -1.2        
Si       Si0    0.0558481    0.374963     0.707694     2.4        
O        O0     0.0555342    0.239332     0.644514    -1.2        
Si       Si0    0.0410507    0.194559     0.616348     2.4        
O        O0     0.112454     0.196418     0.485808    -1.2        
Al       Al0    0.289769     0.443788     0.8589       1.4        
O        O0     0.365914     0.449083     0.733992    -1.2        
Si       Si0    0.456948     0.193436     0.879107     2.4        
O        O0     0.391415     0.183083     1.0098      -1.2        
Al       Al0    0.208451     0.443961     0.637347     1.4        
O        O0     0.128312     0.447399     0.761283    -1.2        
Si       Si0    0.0427977    0.313632     0.882058     2.4        
O        O0     0.111156     0.312926     1.01275     -1.2        
Al       Al0    0.29029      0.0603862    0.633186     1.4        
O        O0     0.370828     0.0552021    0.758417    -1.2        
Si       Si0    0.458474     0.311476     0.612473     2.4        
O        O0     0.385426     0.316098     0.487191    -1.2        
Al       Al0    0.206109     0.0629362    0.863664     1.4        
O        O0     0.127163     0.0573224    0.737842    -1.2        
Si       Si0    0.0372345    0.112494     0.683736     2.4        
O        O0     0.109742    -0.0110009    0.685572    -1.2        
Si       Si0    0.290735     0.368537     0.938111     2.4        
O        O0     0.356663     0.237555     0.950582    -1.2        
Si       Si0    0.459295     0.390688     0.683999     2.4        
O        O0     0.387209     0.515356     0.683292    -1.2        
Si       Si0    0.205551     0.135928     0.942315     2.4        
O        O0     0.145632     0.265301     0.946062    -1.2        
Si       Si0    0.0357911    0.397771     0.814837     2.4        
O        O0     0.10982      0.519401     0.808782    -1.2        
Si       Si0    0.290955     0.133564     0.551049     2.4        
O        O0     0.355024     0.264399     0.54943     -1.2        
Si       Si0    0.459831     0.1112       0.811277     2.4        
O        O0     0.386796    -0.0116966    0.809964    -1.2        
Si       Si0    0.207316     0.366594     0.557493     2.4        
O        O0     0.139342     0.240591     0.557966    -1.2        
Si       Si0    0.117073     0.194581     0.541565     2.4        
O        O0    -0.0122894    0.199131     0.606139    -1.2        
Si       Si0    0.368255     0.441848     0.789335     2.4        
O        O0     0.230412     0.440802     0.840504    -1.2        
Si       Si0    0.380907     0.190075     0.955176     2.4        
O        O0     0.507619     0.193139     0.890155    -1.2        
Si       Si0    0.130375     0.443315     0.706391     2.4        
O        O0     0.264914     0.440796     0.653342    -1.2        
Si       Si0    0.381066     0.313315     0.541241     2.4        
O        O0     0.508473     0.307813     0.59939     -1.2        
Si       Si0    0.12605      0.0639843    0.795342     2.4        
O        O0     0.263159     0.0679134    0.852145    -1.2        
Si       Si0    0.120108     0.31295      0.956993     2.4        
O        O0    -0.00957107   0.30942      0.89515     -1.2        
Si       Si0    0.37058      0.0584184    0.704044     2.4        
O        O0     0.236715     0.0675777    0.641457    -1.2        
Si       Si0    0.193146     0.0472544    0.61744      2.4        
O        O0     0.191848     0.115024     0.484331    -1.2        
Si       Si0    0.446104     0.294204     0.862185     2.4        
O        O0     0.448241     0.368596     0.73304     -1.2        
Si       Si0    0.190595     0.460224     0.874322     2.4        
O        O0     0.194282     0.394213     1.01045     -1.2        
Si       Si0    0.444572     0.209796     0.629119     2.4        
O        O0     0.448502     0.124223     0.759096    -1.2        
Si       Si0    0.303372     0.0456865    0.877342     2.4        
O        O0     0.308787     0.111064     1.01135     -1.2        
Al       Al0    0.0576245    0.296602     0.634006     1.4        
O        O0     0.0489169    0.376296     0.763683    -1.2        
Si       Si0    0.303159     0.458613     0.619466     2.4        
O        O0     0.300037     0.391321     0.489468    -1.2        
Al       Al0    0.0583297    0.212593     0.863307     1.4        
O        O0     0.0464047    0.131121     0.735324    -1.2        
O        O0     0.0668226    0.0683806    0.674625    -1.2        
O        O0     0.0988111    0.109404     0.803036    -1.2        
O        O0     0.312197     0.318897     0.940208    -1.2        
O        O0     0.346171     0.352433     0.557458    -1.2        
O        O0     0.430811     0.436491     0.675865    -1.2        
O        O0     0.39349      0.395906     0.801849    -1.2        
O        O0     0.182691     0.184932     0.934653    -1.2        
O        O0     0.15265      0.154289     0.553879    -1.2        
O        O0     0.432518     0.0645826    0.823402    -1.2        
O        O0     0.395441     0.102345     0.686423    -1.2        
O        O0     0.17934      0.321359     0.561844    -1.2        
O        O0     0.151681     0.355192     0.943524    -1.2        
O        O0     0.0641352    0.443967     0.821905    -1.2        
O        O0     0.101955     0.399934     0.695025    -1.2        
O        O0     0.315581     0.18184      0.555598    -1.2        
O        O0     0.346431     0.151899     0.941502    -1.2        
O        O0     0.186736     0.0714626    0.566424    -1.2        
O        O0     0.307168     0.108198     0.597791    -1.2        
O        O0     0.453773     0.315531     0.811616    -1.2        
O        O0     0.0491845    0.360073     0.852053    -1.2        
O        O0     0.1912       0.434208     0.92368     -1.2        
O        O0     0.298485     0.399874     0.894409    -1.2        
O        O0     0.444982     0.181191     0.677381    -1.2        
O        O0     0.0500448    0.151314     0.645699    -1.2        
O        O0     0.301944     0.430265     0.570075    -1.2        
O        O0     0.198553     0.400684     0.599092    -1.2        
O        O0     0.0536258    0.186522     0.8059      -1.2        
O        O0     0.446128     0.15186      0.844329    -1.2        
O        O0     0.310394     0.0700445    0.928585    -1.2        
O        O0     0.192686     0.103245     0.902419    -1.2        
O        O0     0.0543993    0.32348      0.694169    -1.2        
O        O0     0.449727     0.353533     0.646041    -1.2        
O        O0     0.0698572    0.189687     0.569154    -1.2        
O        O0     0.102548     0.30844      0.601856    -1.2        
O        O0     0.316335     0.440311     0.803452    -1.2        
O        O0     0.347041     0.0581873    0.846399    -1.2        
O        O0     0.425378     0.189232     0.924722    -1.2        
O        O0     0.401549     0.304575     0.889594    -1.2        
O        O0     0.182102     0.438395     0.692875    -1.2        
O        O0     0.150107     0.0577077    0.648877    -1.2        
O        O0     0.0744345    0.314563     0.926341    -1.2        
O        O0     0.102594     0.203803     0.897168    -1.2        
O        O0     0.321716     0.0673079    0.682464    -1.2        
O        O0     0.349818     0.448718     0.644629    -1.2        
O        O0     0.425792     0.316656     0.568429    -1.2        
O        O0     0.396615     0.196304     0.605063    -1.2        
O        O0     0.175584     0.0656751    0.812876    -1.2        
O        O0     0.145766     0.450504     0.848108    -1.2        
Si       Si0    0.116399     0.545343     0.18694      2.4        
O        O0    -0.0130774    0.603813     0.173089    -1.2        
Al       Al0    0.370662     0.797029     0.437223     1.4        
O        O0     0.238603     0.855613     0.443192    -1.2        
Si       Si0    0.387553     0.957786     0.183284     2.4        
O        O0     0.516006     0.9029       0.189578    -1.2        
Si       Si0    0.133329     0.711279     0.439395     2.4        
O        O0     0.262053     0.65499      0.445819    -1.2        
Si       Si0    0.384304     0.543055     0.310751     2.4        
O        O0     0.510814     0.605586     0.307994    -1.2        
Si       Si0    0.131913     0.795966     0.0589219    2.4        
O        O0     0.255293     0.859089     0.050705    -1.2        
Si       Si0    0.113106     0.963945     0.313555     2.4        
O        O0    -0.015719     0.910697     0.314135    -1.2        
Al       Al0    0.362637     0.710031     0.0556016    1.4        
O        O0     0.239644     0.634696     0.0551771   -1.2        
Si       Si0    0.191487     0.617353     0.0394228    2.4        
O        O0     0.191833     0.493432     0.116809    -1.2        
Al       Al0    0.444302     0.871908     0.291006     1.4        
O        O0     0.452268     0.740363     0.354472    -1.2        
Si       Si0    0.19543      0.884139     0.454549     2.4        
O        O0     0.201797     1.0095       0.378019    -1.2        
Al       Al0    0.443457     0.634612     0.203182     1.4        
O        O0     0.450513     0.763684     0.131496    -1.2        
Si       Si0    0.297311     0.889129     0.038426     2.4        
O        O0     0.303419     1.00774      0.118502    -1.2        
Si       Si0    0.0524133    0.633971     0.291319     2.4        
O        O0     0.0504989    0.769534     0.349462    -1.2        
Si       Si0    0.307585     0.624243     0.45724      2.4        
O        O0     0.297874     0.495962     0.392708    -1.2        
Si       Si0    0.0543872    0.873102     0.20908      2.4        
O        O0     0.0588852    0.737316     0.148858    -1.2        
Si       Si0    0.0464719    0.695084     0.118108     2.4        
O        O0     0.114052     0.693899    -0.0136174   -1.2        
Al       Al0    0.289081     0.941408     0.357647     1.4        
O        O0     0.37119      0.94346      0.2342      -1.2        
Si       Si0    0.460787     0.693004     0.382452     2.4        
O        O0     0.394622     0.690536     0.512165    -1.2        
Al       Al0    0.208896     0.942072     0.139596     1.4        
O        O0     0.130377     0.94728      0.263783    -1.2        
Si       Si0    0.0396447    0.814135     0.381154     2.4        
O        O0     0.108954     0.813602     0.50951     -1.2        
Al       Al0    0.292639     0.561313     0.127409     1.4        
O        O0     0.366737     0.557182     0.258197    -1.2        
Si       Si0    0.452474     0.813349     0.108297     2.4        
O        O0     0.40179      0.813931    -0.00436833  -1.2        
Al       Al0    0.208835     0.56439      0.364636     1.4        
O        O0     0.133091     0.559286     0.238519    -1.2        
Si       Si0    0.038324     0.611894     0.182756     2.4        
O        O0     0.115343     0.490965     0.186954    -1.2        
Si       Si0    0.291467     0.86736      0.438681     2.4        
O        O0     0.359819     0.739218     0.449016    -1.2        
Si       Si0    0.464414     0.890685     0.183998     2.4        
O        O0     0.388769     1.01186      0.180652    -1.2        
Si       Si0    0.210199     0.642113     0.443148     2.4        
O        O0     0.14066      0.765025     0.442655    -1.2        
Si       Si0    0.0350397    0.898233     0.314485     2.4        
O        O0     0.111251     1.01756      0.313083    -1.2        
Si       Si0    0.291956     0.634747     0.051494     2.4        
O        O0     0.347948     0.769348     0.0464923   -1.2        
Si       Si0    0.458459     0.615149     0.310172     2.4        
O        O0     0.388395     0.488694     0.309628    -1.2        
Si       Si0    0.203324     0.869975     0.0565403    2.4        
O        O0     0.143083     0.7427       0.0560933   -1.2        
Si       Si0    0.121918     0.694963     0.0420316    2.4        
O        O0    -0.00768621   0.700153     0.108083    -1.2        
Si       Si0    0.369131     0.940219     0.291511     2.4        
O        O0     0.230295     0.937916     0.335322    -1.2        
Si       Si0    0.385409     0.693362     0.457715     2.4        
O        O0     0.510956     0.694298     0.393294    -1.2        
Si       Si0    0.130505     0.940616     0.208476     2.4        
O        O0     0.264671     0.938791     0.158623    -1.2        
Si       Si0    0.37315      0.81638      0.0435075    2.4        
O        O0     0.488056     0.813295     0.0660234   -1.2        
Si       Si0    0.125466     0.564687     0.293653     2.4        
O        O0     0.262513     0.561955     0.349621    -1.2        
Si       Si0    0.118072     0.812752     0.454384     2.4        
O        O0    -0.0121672    0.80911      0.394759    -1.2        
Si       Si0    0.371149     0.559674     0.202142     2.4        
O        O0     0.237378     0.565153     0.13418     -1.2        
Si       Si0    0.191437     0.546771     0.115546     2.4        
O        O0     0.193814     0.617094    -0.0175455   -1.2        
Si       Si0    0.446905     0.794846     0.364092     2.4        
O        O0     0.449072     0.868389     0.23204     -1.2        
Si       Si0    0.193283     0.956358     0.373769     2.4        
O        O0     0.196748     0.893626     0.509399    -1.2        
Si       Si0    0.447071     0.710685     0.126417     2.4        
O        O0     0.444276     0.635248     0.26147     -1.2        
Si       Si0    0.304959     0.549833     0.37846      2.4        
O        O0     0.303819     0.614376     0.511138    -1.2        
Al       Al0    0.0573019    0.794315     0.139018     1.4        
O        O0     0.0479286    0.878481     0.262931    -1.2        
Si       Si0    0.30365      0.954908     0.12364      2.4        
O        O0     0.293918     0.901839    -0.0173085   -1.2        
Al       Al0    0.0573423    0.709085     0.364717     1.4        
O        O0     0.0447991    0.630559     0.23558     -1.2        
O        O0     0.0688239    0.567655     0.177663    -1.2        
O        O0     0.0979633    0.608787     0.303088    -1.2        
O        O0     0.316436     0.820191     0.443371    -1.2        
O        O0     0.338717     0.8571       0.0434166   -1.2        
O        O0     0.434213     0.933875     0.172853    -1.2        
O        O0     0.395634     0.897948     0.306772    -1.2        
O        O0     0.180301     0.686259     0.434723    -1.2        
O        O0     0.15486      0.655525     0.0548717   -1.2        
O        O0     0.429437     0.569814     0.318788    -1.2        
O        O0     0.398911     0.600189     0.182017    -1.2        
O        O0     0.17669      0.825226     0.0643425   -1.2        
O        O0     0.152337     0.853077     0.442349    -1.2        
O        O0     0.0657673    0.941488     0.321519    -1.2        
O        O0     0.0987588    0.900313     0.196239    -1.2        
O        O0     0.311661     0.684324     0.0560975   -1.2        
O        O0     0.352031     0.651983     0.445607    -1.2        
O        O0     0.181962     0.569982     0.0628557   -1.2        
O        O0     0.315692     0.604413     0.091233    -1.2        
O        O0     0.455653     0.816182     0.313213    -1.2        
O        O0     0.0457474    0.858352     0.349842    -1.2        
O        O0     0.197768     0.928967     0.423188    -1.2        
O        O0     0.300905     0.898063     0.393998    -1.2        
O        O0     0.445473     0.685895     0.175912    -1.2        
O        O0     0.0520553    0.649616     0.147613    -1.2        
O        O0     0.298522     0.929986     0.0738877   -1.2        
O        O0     0.197154     0.902935     0.0993293   -1.2        
O        O0     0.0544986    0.687483     0.303953    -1.2        
O        O0     0.451265     0.652427     0.348632    -1.2        
O        O0     0.303778     0.578522     0.426679    -1.2        
O        O0     0.203146     0.604553     0.405523    -1.2        
O        O0     0.0573792    0.820042     0.196137    -1.2        
O        O0     0.459154     0.853205     0.143604    -1.2        
O        O0     0.0761       0.690995     0.0720508   -1.2        
O        O0     0.100938     0.805865     0.102564    -1.2        
O        O0     0.316703     0.938098     0.302049    -1.2        
O        O0     0.349195     0.556962     0.348665    -1.2        
O        O0     0.429089     0.691677     0.427808    -1.2        
O        O0     0.401941     0.80237      0.390047    -1.2        
O        O0     0.180633     0.933486     0.194716    -1.2        
O        O0     0.151861     0.562164     0.149695    -1.2        
O        O0     0.0723943    0.816288     0.424463    -1.2        
O        O0     0.101445     0.700825     0.398357    -1.2        
O        O0     0.324463     0.565226     0.178512    -1.2        
O        O0     0.35111      0.940899     0.146319    -1.2        
O        O0     0.405741     0.820542     0.083743    -1.2        
O        O0     0.404722     0.696724     0.0961208   -1.2        
O        O0     0.170067     0.565356     0.3213      -1.2        
O        O0     0.146647     0.947044     0.351426    -1.2        
Si       Si0    0.110962     0.542103     0.681042     2.4        
O        O0    -0.0147891    0.60387      0.669465    -1.2        
Al       Al0    0.370271     0.798221     0.942028     1.4        
O        O0     0.233881     0.851823     0.943732    -1.2        
Si       Si0    0.387945     0.960083     0.684934     2.4        
O        O0     0.514906     0.902559     0.683296    -1.2        
Si       Si0    0.130484     0.709873     0.935088     2.4        
O        O0     0.257579     0.657583     0.938051    -1.2        
Si       Si0    0.388252     0.53951      0.809778     2.4        
O        O0     0.513817     0.606146     0.810276    -1.2        
Si       Si0    0.131195     0.799387     0.560104     2.4        
O        O0     0.262726     0.85368      0.553322    -1.2        
Si       Si0    0.107864     0.966032     0.816148     2.4        
O        O0    -0.0141688    0.907513     0.811714    -1.2        
Al       Al0    0.370372     0.709558     0.560914     1.4        
O        O0     0.240905     0.651517     0.561321    -1.2        
Si       Si0    0.196275     0.626524     0.547844     2.4        
O        O0     0.202678     0.496673     0.613892    -1.2        
Al       Al0    0.442378     0.875822     0.798487     1.4        
O        O0     0.447275     0.741506     0.853838    -1.2        
Si       Si0    0.190135     0.881692     0.952439     2.4        
O        O0     0.199707     1.00973      0.887586    -1.2        
Al       Al0    0.443667     0.629586     0.702847     1.4        
O        O0     0.449163     0.765619     0.641384    -1.2        
Si       Si0    0.30651      0.884521     0.541403     2.4        
O        O0     0.303584     1.00815      0.611958    -1.2        
Si       Si0    0.0523589    0.633121     0.786804     2.4        
O        O0     0.0494556    0.770871     0.848161    -1.2        
Si       Si0    0.302604     0.626497     0.944616     2.4        
O        O0     0.297745     0.49716      0.88006     -1.2        
Si       Si0    0.0548241    0.872881     0.708749     2.4        
O        O0     0.0543995    0.737957     0.648223    -1.2        
Si       Si0    0.0431304    0.69589      0.61604      2.4        
O        O0     0.113718     0.696596     0.488063    -1.2        
Al       Al0    0.286126     0.941142     0.854573     1.4        
O        O0     0.37275      0.944616     0.734334    -1.2        
Si       Si0    0.457163     0.694163     0.880638     2.4        
O        O0     0.385537     0.686602     1.00725     -1.2        
Al       Al0    0.210237     0.943109     0.63956      1.4        
O        O0     0.126366     0.95107      0.765695    -1.2        
Si       Si0    0.0361085    0.812087     0.882222     2.4        
O        O0     0.109558     0.810863     1.0089      -1.2        
Al       Al0    0.289261     0.56398      0.638775     1.4        
O        O0     0.371659     0.556141     0.758664    -1.2        
Si       Si0    0.460746     0.811572     0.616034     2.4        
O        O0     0.3951       0.81554      0.485887    -1.2        
Al       Al0    0.209595     0.563798     0.85151      1.4        
O        O0     0.126653     0.557683     0.731743    -1.2        
Si       Si0    0.036192     0.61178      0.679063     2.4        
O        O0     0.110542     0.488225     0.683206    -1.2        
Si       Si0    0.285705     0.869581     0.938973     2.4        
O        O0     0.355201     0.74211      0.950334    -1.2        
Si       Si0    0.463054     0.893565     0.686542     2.4        
O        O0     0.3938       1.01395      0.683505    -1.2        
Si       Si0    0.206213     0.641066     0.932602     2.4        
O        O0     0.137775     0.764104     0.938544    -1.2        
Si       Si0    0.0354619    0.895753     0.814383     2.4        
O        O0     0.102779     1.01945      0.816123    -1.2        
Si       Si0    0.293334     0.641041     0.560535     2.4        
O        O0     0.36015      0.768863     0.548763    -1.2        
Si       Si0    0.460592     0.613086     0.812405     2.4        
O        O0     0.391218     0.485697     0.810954    -1.2        
Si       Si0    0.209214     0.869002     0.557757     2.4        
O        O0     0.142307     0.745606     0.557338    -1.2        
Si       Si0    0.119257     0.697701     0.543913     2.4        
O        O0    -0.00886375   0.6975       0.60571     -1.2        
Si       Si0    0.365671     0.942945     0.790999     2.4        
O        O0     0.228641     0.94208      0.836604    -1.2        
Si       Si0    0.378826     0.693501     0.952628     2.4        
O        O0     0.506874     0.698621     0.893672    -1.2        
Si       Si0    0.128891     0.944207     0.709404     2.4        
O        O0     0.266744     0.942195     0.658108    -1.2        
Si       Si0    0.385943     0.815998     0.538901     2.4        
O        O0     0.51128      0.808565     0.604919    -1.2        
Si       Si0    0.130204     0.565777     0.786792     2.4        
O        O0     0.266614     0.563779     0.828965    -1.2        
Si       Si0    0.114302     0.812215     0.952942     2.4        
O        O0    -0.014866     0.806781     0.893174    -1.2        
Si       Si0    0.36849      0.562513     0.703442     2.4        
O        O0     0.231396     0.567575     0.657503    -1.2        
Si       Si0    0.194484     0.549471     0.62177      2.4        
O        O0     0.198329     0.619429     0.492511    -1.2        
Si       Si0    0.445367     0.794351     0.865017     2.4        
O        O0     0.450678     0.878224     0.737417    -1.2        
Si       Si0    0.191784     0.959165     0.876857     2.4        
O        O0     0.18859      0.891964     1.00715     -1.2        
Si       Si0    0.447746     0.71068      0.632873     2.4        
O        O0     0.449387     0.633204     0.763617    -1.2        
Si       Si0    0.303765     0.549285     0.868218     2.4        
O        O0     0.304297     0.616314     0.999877    -1.2        
Al       Al0    0.0559781    0.796063     0.637269     1.4        
O        O0     0.0492737    0.876215     0.764651    -1.2        
Si       Si0    0.305359     0.955941     0.622418     2.4        
O        O0     0.304168     0.895044     0.486461    -1.2        
Al       Al0    0.0544263    0.711116     0.858507     1.4        
O        O0     0.0437035    0.628221     0.73214     -1.2        
O        O0     0.0638812    0.565694     0.67007     -1.2        
O        O0     0.0988188    0.606814     0.800001    -1.2        
O        O0     0.313498     0.823333     0.949351    -1.2        
O        O0     0.350802     0.855651     0.552121    -1.2        
O        O0     0.436663     0.94         0.672823    -1.2        
O        O0     0.392131     0.901908     0.809243    -1.2        
O        O0     0.1761       0.68517      0.926381    -1.2        
O        O0     0.154068     0.657738     0.560057    -1.2        
O        O0     0.434703     0.56575      0.819209    -1.2        
O        O0     0.394287     0.605851     0.690349    -1.2        
O        O0     0.177885     0.826108     0.562726    -1.2        
O        O0     0.146399     0.853281     0.937578    -1.2        
O        O0     0.0642724    0.93903      0.824521    -1.2        
O        O0     0.0991909    0.900688     0.695766    -1.2        
O        O0     0.315575     0.689511     0.556007    -1.2        
O        O0     0.345452     0.657817     0.932519    -1.2        
O        O0     0.195268     0.578535     0.574702    -1.2        
O        O0     0.301364     0.607318     0.602549    -1.2        
O        O0     0.452032     0.823085     0.81954     -1.2        
O        O0     0.044064     0.857251     0.851915    -1.2        
O        O0     0.195386     0.925799     0.92089     -1.2        
O        O0     0.29125      0.895723     0.890876    -1.2        
O        O0     0.456038     0.688028     0.684047    -1.2        
O        O0     0.0525305    0.650249     0.644872    -1.2        
O        O0     0.30498      0.927575     0.575298    -1.2        
O        O0     0.204437     0.899767     0.601495    -1.2        
O        O0     0.054167     0.686201     0.798893    -1.2        
O        O0     0.448804     0.651047     0.850229    -1.2        
O        O0     0.300396     0.58184      0.913365    -1.2        
O        O0     0.204547     0.607907     0.889262    -1.2        
O        O0     0.055941     0.820265     0.696537    -1.2        
O        O0     0.452257     0.854122     0.650984    -1.2        
O        O0     0.073304     0.692817     0.570751    -1.2        
O        O0     0.0995014    0.808871     0.603259    -1.2        
O        O0     0.313167     0.941162     0.799685    -1.2        
O        O0     0.35131      0.556859     0.844881    -1.2        
O        O0     0.426509     0.693487     0.926338    -1.2        
O        O0     0.403089     0.804169     0.895709    -1.2        
O        O0     0.181063     0.940716     0.698498    -1.2        
O        O0     0.14816      0.556472     0.64476     -1.2        
O        O0     0.0669272    0.814223     0.926343    -1.2        
O        O0     0.0971603    0.700066     0.893499    -1.2        
O        O0     0.315449     0.565585     0.692021    -1.2        
O        O0     0.352708     0.946678     0.647607    -1.2        
O        O0     0.430153     0.817583     0.571447    -1.2        
O        O0     0.40315      0.698915     0.607547    -1.2        
O        O0     0.18127      0.571903     0.799758    -1.2        
O        O0     0.144594     0.952703     0.853214    -1.2        
Si       Si0    0.616391     0.0438362    0.18389      2.4        
O        O0     0.489024     0.100818     0.180466    -1.2        
Al       Al0    0.870921     0.296383     0.437087     1.4        
O        O0     0.739879     0.360628     0.441444    -1.2        
Si       Si0    0.885678     0.45953      0.183754     2.4        
O        O0     1.01367      0.397888     0.186112    -1.2        
Si       Si0    0.635223     0.210415     0.437681     2.4        
O        O0     0.762092     0.154994     0.443726    -1.2        
Si       Si0    0.888889     0.0412441    0.313712     2.4        
O        O0     1.01292      0.105267     0.31592     -1.2        
Si       Si0    0.635787     0.295317     0.061606     2.4        
O        O0     0.761845     0.358293     0.0555692   -1.2        
Si       Si0    0.609353     0.465743     0.312353     2.4        
O        O0     0.484758     0.404535     0.310931    -1.2        
Al       Al0    0.867147     0.209761     0.0585816    1.4        
O        O0     0.740901     0.141968     0.0579913   -1.2        
Si       Si0    0.694544     0.119331     0.0440498    2.4        
O        O0     0.699278    -0.00451494   0.118999    -1.2        
Al       Al0    0.942738     0.375199     0.295918     1.4        
O        O0     0.94986      0.23824      0.353363    -1.2        
Si       Si0    0.694367     0.385119     0.45367      2.4        
O        O0     0.699798     0.510696     0.377557    -1.2        
Al       Al0    0.937953     0.129721     0.206532     1.4        
O        O0     0.942601     0.263106     0.142052    -1.2        
Si       Si0    0.806863     0.385565     0.04192      2.4        
O        O0     0.804673     0.507877     0.115308    -1.2        
Si       Si0    0.557024     0.13202      0.2918       2.4        
O        O0     0.55214      0.273059     0.347078    -1.2        
Si       Si0    0.805622     0.123917     0.452604     2.4        
O        O0     0.799613    -0.00454906   0.379864    -1.2        
Si       Si0    0.555209     0.372989     0.208112     2.4        
O        O0     0.554112     0.237699     0.148076    -1.2        
Si       Si0    0.545355     0.193978     0.118099     2.4        
O        O0     0.614652     0.195854    -0.00993547  -1.2        
Al       Al0    0.787827     0.440913     0.358524     1.4        
O        O0     0.870207     0.442971     0.234847    -1.2        
Si       Si0    0.958541     0.191203     0.381827     2.4        
O        O0     0.891439     0.181837     0.514828    -1.2        
Al       Al0    0.708906     0.442336     0.139466     1.4        
O        O0     0.62805      0.45263      0.260641    -1.2        
Si       Si0    0.540132     0.313264     0.383346     2.4        
O        O0     0.613742     0.307764     0.511029    -1.2        
Al       Al0    0.791589     0.061687     0.13835      1.4        
O        O0     0.871205     0.058364     0.263104    -1.2        
Si       Si0    0.958384     0.311657     0.118814     2.4        
O        O0     0.894839     0.315044    -0.0121769   -1.2        
Al       Al0    0.712057     0.0632679    0.358724     1.4        
O        O0     0.631426     0.0581685    0.234632    -1.2        
Si       Si0    0.540547     0.110174     0.185077     2.4        
O        O0     0.618355    -0.011003     0.183751    -1.2        
Si       Si0    0.7935       0.368258     0.43803      2.4        
O        O0     0.858881     0.236166     0.45245     -1.2        
Si       Si0    0.961317     0.392587     0.186852     2.4        
O        O0     0.883584     0.51369      0.183991    -1.2        
Si       Si0    0.711994     0.13998      0.43804      2.4        
O        O0     0.644147     0.264529     0.439784    -1.2        
Si       Si0    0.535166     0.395697     0.313636     2.4        
O        O0     0.607208     0.520314     0.312143    -1.2        
Si       Si0    0.793243     0.134124     0.0557802    2.4        
O        O0     0.858903     0.267192     0.0518744   -1.2        
Si       Si0    0.960282     0.111224     0.314612     2.4        
O        O0     0.888043    -0.0123365    0.311957    -1.2        
Si       Si0    0.707825     0.369722     0.0589085    2.4        
O        O0     0.646511     0.242308     0.0586313   -1.2        
Si       Si0    0.622745     0.195106     0.0463589    2.4        
O        O0     0.492423     0.193888     0.104073    -1.2        
Si       Si0    0.865147     0.44021      0.290833     2.4        
O        O0     0.729892     0.438949     0.3393      -1.2        
Si       Si0    0.88431      0.189176     0.458753     2.4        
O        O0     1.00936      0.192109     0.390445    -1.2        
Si       Si0    0.632062     0.442879     0.205358     2.4        
O        O0     0.766442     0.437463     0.15489     -1.2        
Si       Si0    0.885138     0.315428     0.041569     2.4        
O        O0     1.00983      0.306656     0.110316    -1.2        
Si       Si0    0.632111     0.0643163    0.289885     2.4        
O        O0     0.76885      0.0676501    0.337572    -1.2        
Si       Si0    0.619834     0.310944     0.455349     2.4        
O        O0     0.486939     0.30684      0.394056    -1.2        
Si       Si0    0.865799     0.0597982    0.208033     2.4        
O        O0     0.736771     0.0676105    0.148953    -1.2        
Si       Si0    0.695684     0.0485573    0.119561     2.4        
O        O0     0.695151     0.116565    -0.0125439   -1.2        
Si       Si0    0.945455     0.291935     0.362591     2.4        
O        O0     0.948746     0.374002     0.236729    -1.2        
Si       Si0    0.692293     0.458022     0.374451     2.4        
O        O0     0.694079     0.390375     0.51084     -1.2        
Si       Si0    0.942177     0.210761     0.13339      2.4        
O        O0     0.945616     0.128369     0.263996    -1.2        
Si       Si0    0.805586     0.0499161    0.375532     2.4        
O        O0     0.805811     0.114958     0.508246    -1.2        
Al       Al0    0.557363     0.2946       0.136626     1.4        
O        O0     0.551878     0.372814     0.265503    -1.2        
Si       Si0    0.805591     0.454924     0.120932     2.4        
O        O0     0.805963     0.394013    -0.0132234   -1.2        
Al       Al0    0.557517     0.210353     0.362431     1.4        
O        O0     0.551667     0.127646     0.236006    -1.2        
O        O0     0.568834     0.0638357    0.175061    -1.2        
O        O0     0.603142     0.10708      0.30396     -1.2        
O        O0     0.816799     0.319037     0.441152    -1.2        
O        O0     0.849905     0.355772     0.0546815   -1.2        
O        O0     0.934282     0.44038      0.174318    -1.2        
O        O0     0.891959     0.399205     0.309588    -1.2        
O        O0     0.681555     0.184295     0.429091    -1.2        
O        O0     0.654948     0.152424     0.0591673   -1.2        
O        O0     0.936089     0.064032     0.323984    -1.2        
O        O0     0.89001      0.100959     0.184339    -1.2        
O        O0     0.682084     0.321913     0.0642989   -1.2        
O        O0     0.652088     0.353252     0.440441    -1.2        
O        O0     0.564022     0.440283     0.320886    -1.2        
O        O0     0.601283     0.399242     0.195092    -1.2        
O        O0     0.816227     0.181341     0.0577232   -1.2        
O        O0     0.849457     0.150878     0.440746    -1.2        
O        O0     0.694127     0.071356     0.0681662   -1.2        
O        O0     0.811766     0.103827     0.0986985   -1.2        
O        O0     0.952837     0.318806     0.315298    -1.2        
O        O0     0.546675     0.35987      0.356063    -1.2        
O        O0     0.691537     0.431674     0.424296    -1.2        
O        O0     0.801822     0.399583     0.395007    -1.2        
O        O0     0.935203     0.182836     0.179837    -1.2        
O        O0     0.554141     0.149284     0.148592    -1.2        
O        O0     0.803995     0.430609     0.0720919   -1.2        
O        O0     0.698645     0.401571     0.100679    -1.2        
O        O0     0.557472     0.184653     0.304733    -1.2        
O        O0     0.945179     0.148684     0.350377    -1.2        
O        O0     0.803519     0.0787734    0.421634    -1.2        
O        O0     0.708792     0.104675     0.397543    -1.2        
O        O0     0.553811     0.32025      0.194908    -1.2        
O        O0     0.948261     0.353149     0.151088    -1.2        
O        O0     0.576852     0.191906     0.0730097   -1.2        
O        O0     0.605015     0.305189     0.105913    -1.2        
O        O0     0.810021     0.437645     0.300039    -1.2        
O        O0     0.852663     0.0586435    0.350865    -1.2        
O        O0     0.928378     0.18975      0.429319    -1.2        
O        O0     0.899546     0.299845     0.389473    -1.2        
O        O0     0.6848       0.433911     0.198313    -1.2        
O        O0     0.652734     0.0623855    0.148367    -1.2        
O        O0     0.572582     0.311717     0.427627    -1.2        
O        O0     0.603721     0.202069     0.395756    -1.2        
O        O0     0.814404     0.0629874    0.19896     -1.2        
O        O0     0.850413     0.442859     0.147106    -1.2        
O        O0     0.929677     0.317374     0.0721332   -1.2        
O        O0     0.900091     0.193451     0.102868    -1.2        
O        O0     0.683413     0.0715467    0.303255    -1.2        
O        O0     0.646076     0.450622     0.34886     -1.2        
Si       Si0    0.615643     0.0410537    0.683776     2.4        
O        O0     0.486675     0.0907463    0.679842    -1.2        
Al       Al0    0.871776     0.2965       0.93753      1.4        
O        O0     0.740034     0.354505     0.943917    -1.2        
Si       Si0    0.887494     0.459455     0.6837       2.4        
O        O0     1.01416      0.400537     0.68415     -1.2        
Si       Si0    0.633892     0.210797     0.94055      2.4        
O        O0     0.761801     0.152003     0.942759    -1.2        
Si       Si0    0.887834     0.0434415    0.811941     2.4        
O        O0     1.01248      0.108776     0.814428    -1.2        
Si       Si0    0.634587     0.295182     0.560869     2.4        
O        O0     0.761934     0.352517     0.553226    -1.2        
Si       Si0    0.612711     0.461853     0.812396     2.4        
O        O0     0.486538     0.401944     0.814906    -1.2        
Al       Al0    0.867062     0.212738     0.559199     1.4        
O        O0     0.741805     0.143873     0.561172    -1.2        
Si       Si0    0.696345     0.121736     0.543413     2.4        
O        O0     0.702358    -0.00336823   0.617485    -1.2        
Al       Al0    0.942807     0.374835     0.796408     1.4        
O        O0     0.947617     0.24215      0.855144    -1.2        
Si       Si0    0.694211     0.3828       0.95346      2.4        
O        O0     0.698776     0.509515     0.878587    -1.2        
Al       Al0    0.941856     0.132696     0.704131     1.4        
O        O0     0.944885     0.266241     0.639484    -1.2        
Si       Si0    0.806105     0.384163     0.54229      2.4        
O        O0     0.802454     0.509136     0.616379    -1.2        
Si       Si0    0.554704     0.131433     0.79103      2.4        
O        O0     0.55224      0.268688     0.850168    -1.2        
Si       Si0    0.805785     0.122993     0.950856     2.4        
O        O0     0.798117    -0.00376361   0.879236    -1.2        
Si       Si0    0.554672     0.373778     0.705531     2.4        
O        O0     0.554624     0.23379      0.644209    -1.2        
Si       Si0    0.541288     0.19258      0.613924     2.4        
O        O0     0.61533      0.193129     0.487299    -1.2        
Al       Al0    0.785763     0.443438     0.856749     1.4        
O        O0     0.869712     0.442647     0.733694    -1.2        
Si       Si0    0.95866      0.194915     0.882316     2.4        
O        O0     0.888669     0.184109     1.00947     -1.2        
Al       Al0    0.711165     0.440544     0.63966      1.4        
O        O0     0.631161     0.444353     0.762942    -1.2        
Si       Si0    0.542892     0.311783     0.882608     2.4        
O        O0     0.611235     0.30845      1.01282     -1.2        
Al       Al0    0.793828     0.0632049    0.638409     1.4        
O        O0     0.872656     0.0597437    0.761962    -1.2        
Si       Si0    0.959346     0.314164     0.615381     2.4        
O        O0     0.891605     0.315029     0.487114    -1.2        
Al       Al0    0.708145     0.0643334    0.859439     1.4        
O        O0     0.628843     0.0579325    0.735112    -1.2        
Si       Si0    0.537298     0.107552     0.681997     2.4        
O        O0     0.616131    -0.0125338    0.68809     -1.2        
Si       Si0    0.792804     0.368631     0.937568     2.4        
O        O0     0.857382     0.239481     0.950434    -1.2        
Si       Si0    0.96192      0.394182     0.687068     2.4        
O        O0     0.887212     0.5138       0.68385     -1.2        
Si       Si0    0.709309     0.140101     0.939409     2.4        
O        O0     0.643333     0.264806     0.942191    -1.2        
Si       Si0    0.537079     0.395068     0.81443      2.4        
O        O0     0.611409     0.51623      0.80989     -1.2        
Si       Si0    0.794607     0.139418     0.556913     2.4        
O        O0     0.860834     0.269012     0.548741    -1.2        
Si       Si0    0.959832     0.113872     0.813838     2.4        
O        O0     0.888243    -0.0121113    0.80999     -1.2        
Si       Si0    0.709853     0.3656       0.558795     2.4        
O        O0     0.642721     0.241098     0.559263    -1.2        
Si       Si0    0.621201     0.193255     0.543566     2.4        
O        O0     0.487671     0.196261     0.60008     -1.2        
Si       Si0    0.867303     0.439327     0.790158     2.4        
O        O0     0.730531     0.440151     0.836725    -1.2        
Si       Si0    0.881664     0.190871     0.955248     2.4        
O        O0     1.00945      0.195106     0.89232     -1.2        
Si       Si0    0.631557     0.439297     0.707606     2.4        
O        O0     0.767002     0.440556     0.659912    -1.2        
Si       Si0    0.885159     0.316102     0.541177     2.4        
O        O0     1.01024      0.311105     0.605697    -1.2        
Si       Si0    0.630494     0.0632435    0.791211     2.4        
O        O0     0.765858     0.0671426    0.83741     -1.2        
Si       Si0    0.618974     0.310457     0.956526     2.4        
O        O0     0.490692     0.308489     0.894699    -1.2        
Si       Si0    0.866644     0.0608953    0.705437     2.4        
O        O0     0.736866     0.0679666    0.64842     -1.2        
Si       Si0    0.696206     0.0478689    0.61864      2.4        
O        O0     0.698147     0.118314     0.488023    -1.2        
Si       Si0    0.946976     0.295303     0.864212     2.4        
O        O0     0.950851     0.377673     0.737332    -1.2        
Si       Si0    0.692756     0.457109     0.874309     2.4        
O        O0     0.694966     0.392112     1.00964     -1.2        
Si       Si0    0.944036     0.214298     0.632995     2.4        
O        O0     0.944385     0.129079     0.762897    -1.2        
Si       Si0    0.804281     0.0482539    0.872933     2.4        
O        O0     0.806879     0.11326      1.00666     -1.2        
Al       Al0    0.556554     0.293871     0.630435     1.4        
O        O0     0.549025     0.373097     0.763286    -1.2        
Si       Si0    0.804586     0.456066     0.622889     2.4        
O        O0     0.804737     0.393263     0.486842    -1.2        
Al       Al0    0.557427     0.208672     0.863086     1.4        
O        O0     0.548723     0.125868     0.732942    -1.2        
O        O0     0.566913     0.0634546    0.671092    -1.2        
O        O0     0.600764     0.10552      0.805451    -1.2        
O        O0     0.818036     0.32143      0.941481    -1.2        
O        O0     0.849857     0.353728     0.553288    -1.2        
O        O0     0.935725     0.439493     0.675018    -1.2        
O        O0     0.892861     0.397271     0.805847    -1.2        
O        O0     0.680934     0.184993     0.933511    -1.2        
O        O0     0.654495     0.151443     0.557136    -1.2        
O        O0     0.934084     0.0666126    0.825579    -1.2        
O        O0     0.891172     0.102372     0.679554    -1.2        
O        O0     0.682723     0.320612     0.564699    -1.2        
O        O0     0.650769     0.352815     0.94313     -1.2        
O        O0     0.564754     0.440803     0.819556    -1.2        
O        O0     0.600945     0.39784      0.694692    -1.2        
O        O0     0.812369     0.190237     0.554007    -1.2        
O        O0     0.848185     0.152665     0.937007    -1.2        
O        O0     0.692769     0.0730306    0.568479    -1.2        
O        O0     0.814968     0.110594     0.600249    -1.2        
O        O0     0.952595     0.318818     0.814081    -1.2        
O        O0     0.550758     0.357263     0.852836    -1.2        
O        O0     0.6961       0.427632     0.922793    -1.2        
O        O0     0.796943     0.400617     0.895442    -1.2        
O        O0     0.942078     0.186579     0.680549    -1.2        
O        O0     0.546323     0.145808     0.643892    -1.2        
O        O0     0.801554     0.427462     0.574412    -1.2        
O        O0     0.706225     0.398116     0.602023    -1.2        
O        O0     0.555189     0.183066     0.80709     -1.2        
O        O0     0.947209     0.153141     0.848983    -1.2        
O        O0     0.803176     0.0788156    0.920591    -1.2        
O        O0     0.700366     0.107035     0.897639    -1.2        
O        O0     0.552581     0.321677     0.690835    -1.2        
O        O0     0.948301     0.352863     0.652951    -1.2        
O        O0     0.574058     0.188972     0.569307    -1.2        
O        O0     0.604264     0.307012     0.603643    -1.2        
O        O0     0.813724     0.439724     0.801446    -1.2        
O        O0     0.849116     0.0591971    0.845641    -1.2        
O        O0     0.927684     0.190397     0.927693    -1.2        
O        O0     0.90357      0.304828     0.892911    -1.2        
O        O0     0.682082     0.43385      0.691822    -1.2        
O        O0     0.65168      0.057466     0.647891    -1.2        
O        O0     0.572715     0.312523     0.928468    -1.2        
O        O0     0.6018       0.198849     0.899399    -1.2        
O        O0     0.814354     0.0661255    0.695479    -1.2        
O        O0     0.851309     0.443553     0.646193    -1.2        
O        O0     0.929523     0.319324     0.570121    -1.2        
O        O0     0.899099     0.197776     0.606116    -1.2        
O        O0     0.681429     0.0709713    0.804146    -1.2        
O        O0     0.645657     0.447667     0.852854    -1.2        
Si       Si0    0.612846     0.543478     0.182978     2.4        
O        O0     0.487053     0.604862     0.181734    -1.2        
Al       Al0    0.867315     0.79693      0.436403     1.4        
O        O0     0.737721     0.857433     0.443736    -1.2        
Si       Si0    0.887694     0.960405     0.186633     2.4        
O        O0     1.01188      0.895163     0.182941    -1.2        
Si       Si0    0.635752     0.70988      0.43836      2.4        
O        O0     0.763474     0.649082     0.444169    -1.2        
Si       Si0    0.886976     0.541944     0.310891     2.4        
O        O0     1.01075      0.612011     0.315717    -1.2        
Si       Si0    0.635873     0.797175     0.0590864    2.4        
O        O0     0.76145      0.859007     0.0537773   -1.2        
Si       Si0    0.612532     0.964712     0.312715     2.4        
O        O0     0.488633     0.902902     0.308549    -1.2        
Al       Al0    0.870994     0.708266     0.0566333    1.4        
O        O0     0.74375      0.639556     0.0566226   -1.2        
Si       Si0    0.6967       0.619564     0.0420438    2.4        
O        O0     0.698243     0.49602      0.118003    -1.2        
Al       Al0    0.940487     0.874715     0.294464     1.4        
O        O0     0.945596     0.741863     0.355527    -1.2        
Si       Si0    0.69264      0.884213     0.454474     2.4        
O        O0     0.699277     1.0114       0.380886    -1.2        
Al       Al0    0.942674     0.631681     0.203506     1.4        
O        O0     0.939147     0.76543      0.135893    -1.2        
Si       Si0    0.806912     0.886167     0.0434474    2.4        
O        O0     0.805        1.0106       0.118022    -1.2        
Si       Si0    0.552936     0.63333      0.289747     2.4        
O        O0     0.551042     0.769723     0.349618    -1.2        
Si       Si0    0.806969     0.620857     0.451935     2.4        
O        O0     0.797338     0.495827     0.380197    -1.2        
Si       Si0    0.558593     0.874715     0.208267     2.4        
O        O0     0.555148     0.736774     0.141093    -1.2        
Si       Si0    0.544799     0.692475     0.113154     2.4        
O        O0     0.61663      0.696935    -0.0133028   -1.2        
Al       Al0    0.788607     0.943292     0.360374     1.4        
O        O0     0.870342     0.943894     0.237326    -1.2        
Si       Si0    0.955998     0.692166     0.379551     2.4        
O        O0     0.890468     0.67997      0.510827    -1.2        
Al       Al0    0.713635     0.941966     0.141154     1.4        
O        O0     0.631699     0.949119     0.26343     -1.2        
Si       Si0    0.540854     0.812953     0.38276      2.4        
O        O0     0.61132      0.810241     0.510691    -1.2        
Al       Al0    0.791433     0.562993     0.133747     1.4        
O        O0     0.87385      0.560422     0.259451    -1.2        
Si       Si0    0.957325     0.813392     0.115453     2.4        
O        O0     0.892228     0.81334     -0.0130741   -1.2        
Al       Al0    0.706258     0.563754     0.357019     1.4        
O        O0     0.630205     0.556529     0.23429     -1.2        
Si       Si0    0.538705     0.612804     0.185522     2.4        
O        O0     0.614178     0.4888       0.182003    -1.2        
Si       Si0    0.789744     0.866552     0.439222     2.4        
O        O0     0.856198     0.734844     0.45127     -1.2        
Si       Si0    0.959267     0.891455     0.185859     2.4        
O        O0     0.887459     1.01484      0.186722    -1.2        
Si       Si0    0.710208     0.637098     0.439437     2.4        
O        O0     0.642245     0.764062     0.443638    -1.2        
Si       Si0    0.539182     0.894661     0.313378     2.4        
O        O0     0.612538     1.01792      0.312191    -1.2        
Si       Si0    0.797948     0.635718     0.0560926    2.4        
O        O0     0.86136      0.766011     0.0509624   -1.2        
Si       Si0    0.958009     0.613415     0.311266     2.4        
O        O0     0.883711     0.486675     0.309184    -1.2        
Si       Si0    0.70855      0.871351     0.0588319    2.4        
O        O0     0.64603      0.74358      0.0566274   -1.2        
Si       Si0    0.624585     0.694583     0.0418959    2.4        
O        O0     0.493035     0.695382     0.0992223   -1.2        
Si       Si0    0.866753     0.940607     0.292624     2.4        
O        O0     0.732828     0.943945     0.340261    -1.2        
Si       Si0    0.882343     0.688959     0.457047     2.4        
O        O0     1.0077       0.690789     0.388831    -1.2        
Si       Si0    0.634493     0.942215     0.208483     2.4        
O        O0     0.768893     0.940773     0.158515    -1.2        
Si       Si0    0.884633     0.815484     0.0412674    2.4        
O        O0     1.00896      0.809875     0.109358    -1.2        
Si       Si0    0.62814      0.564721     0.290164     2.4        
O        O0     0.764195     0.56366      0.335817    -1.2        
Si       Si0    0.618219     0.81233      0.456093     2.4        
O        O0     0.489461     0.809442     0.395435    -1.2        
Si       Si0    0.867235     0.562429     0.204303     2.4        
O        O0     0.734429     0.567805     0.14649     -1.2        
Si       Si0    0.692954     0.548343     0.117533     2.4        
O        O0     0.699332     0.615564    -0.0135438   -1.2        
Si       Si0    0.942929     0.795144     0.364291     2.4        
O        O0     0.946834     0.875228     0.236489    -1.2        
Si       Si0    0.692803     0.95889      0.374961     2.4        
O        O0     0.693539     0.893155     0.510958    -1.2        
Si       Si0    0.945602     0.712423     0.130786     2.4        
O        O0     0.945389     0.629357     0.260991    -1.2        
Si       Si0    0.803596     0.548406     0.371847     2.4        
O        O0     0.808079     0.611314     0.507356    -1.2        
Al       Al0    0.564976     0.793668     0.138214     1.4        
O        O0     0.555121     0.872909     0.264731    -1.2        
Si       Si0    0.808722     0.957432     0.123567     2.4        
O        O0     0.804877     0.897375    -0.0123451   -1.2        
Al       Al0    0.558361     0.708746     0.364941     1.4        
O        O0     0.549369     0.635035     0.234062    -1.2        
O        O0     0.565865     0.566655     0.177968    -1.2        
O        O0     0.597926     0.607753     0.300633    -1.2        
O        O0     0.811396     0.8169       0.439032    -1.2        
O        O0     0.84874      0.854087     0.0535806   -1.2        
O        O0     0.93409      0.937226     0.174554    -1.2        
O        O0     0.891026     0.896602     0.30979     -1.2        
O        O0     0.682767     0.683361     0.434939    -1.2        
O        O0     0.658157     0.655341     0.0539971   -1.2        
O        O0     0.934323     0.563439     0.321968    -1.2        
O        O0     0.896739     0.602042     0.181135    -1.2        
O        O0     0.681064     0.824908     0.0636413   -1.2        
O        O0     0.65056      0.853209     0.444021    -1.2        
O        O0     0.565796     0.940757     0.321506    -1.2        
O        O0     0.603691     0.900256     0.195258    -1.2        
O        O0     0.816978     0.685455     0.0567545   -1.2        
O        O0     0.849057     0.650903     0.438948    -1.2        
O        O0     0.691198     0.571105     0.0669999   -1.2        
O        O0     0.813729     0.603656     0.0985975   -1.2        
O        O0     0.951167     0.819098     0.315059    -1.2        
O        O0     0.548917     0.858283     0.352639    -1.2        
O        O0     0.692683     0.929427     0.423534    -1.2        
O        O0     0.797173     0.899469     0.397265    -1.2        
O        O0     0.94202      0.684502     0.178279    -1.2        
O        O0     0.552043     0.648935     0.145887    -1.2        
O        O0     0.806796     0.930543     0.0747261   -1.2        
O        O0     0.701257     0.900573     0.103668    -1.2        
O        O0     0.550747     0.684969     0.308764    -1.2        
O        O0     0.942084     0.651544     0.346514    -1.2        
O        O0     0.802653     0.576933     0.419803    -1.2        
O        O0     0.703548     0.606546     0.395217    -1.2        
O        O0     0.556445     0.824846     0.187363    -1.2        
O        O0     0.946064     0.853058     0.149847    -1.2        
O        O0     0.578873     0.690471     0.068565    -1.2        
O        O0     0.603262     0.80676      0.100431    -1.2        
O        O0     0.814343     0.93896      0.304431    -1.2        
O        O0     0.849936     0.557712     0.346326    -1.2        
O        O0     0.92687      0.69012      0.426759    -1.2        
O        O0     0.898453     0.805435     0.390466    -1.2        
O        O0     0.684646     0.934545     0.196951    -1.2        
O        O0     0.648217     0.560615     0.14621     -1.2        
O        O0     0.572993     0.814993     0.426601    -1.2        
O        O0     0.605371     0.700554     0.395591    -1.2        
O        O0     0.814827     0.567523     0.194916    -1.2        
O        O0     0.852118     0.945754     0.149254    -1.2        
O        O0     0.930065     0.821013     0.0688258   -1.2        
O        O0     0.904826     0.691469     0.101416    -1.2        
O        O0     0.678672     0.572642     0.304355    -1.2        
O        O0     0.647906     0.948827     0.349742    -1.2        
Si       Si0    0.615868     0.540666     0.683921     2.4        
O        O0     0.488023     0.600811     0.684535    -1.2        
Al       Al0    0.870144     0.792525     0.93765      1.4        
O        O0     0.740996     0.860932     0.945912    -1.2        
Si       Si0    0.886637     0.960146     0.684746     2.4        
O        O0     1.01296      0.895962     0.685559    -1.2        
Si       Si0    0.636762     0.710605     0.935424     2.4        
O        O0     0.763289     0.649291     0.942236    -1.2        
Si       Si0    0.88917      0.540715     0.810148     2.4        
O        O0     1.01223      0.608593     0.812671    -1.2        
Si       Si0    0.635004     0.793201     0.560437     2.4        
O        O0     0.760223     0.8576       0.553163    -1.2        
Si       Si0    0.612368     0.961706     0.81406      2.4        
O        O0     0.48573      0.906398     0.81702     -1.2        
Al       Al0    0.868787     0.70899      0.557307     1.4        
O        O0     0.740684     0.636507     0.556698    -1.2        
Si       Si0    0.69259      0.616448     0.542965     2.4        
O        O0     0.703306     0.49341      0.615748    -1.2        
Al       Al0    0.942011     0.875184     0.793475     1.4        
O        O0     0.945188     0.7399       0.849753    -1.2        
Si       Si0    0.695889     0.887525     0.955417     2.4        
O        O0     0.697901     1.01225      0.879098    -1.2        
Al       Al0    0.94212      0.629853     0.700679     1.4        
O        O0     0.939886     0.763525     0.636399    -1.2        
Si       Si0    0.805671     0.885182     0.543349     2.4        
O        O0     0.805574     1.01156      0.615957    -1.2        
Si       Si0    0.556138     0.632671     0.789261     2.4        
O        O0     0.555362     0.768922     0.85611     -1.2        
Si       Si0    0.808362     0.62154      0.951095     2.4        
O        O0     0.798431     0.49549      0.872985    -1.2        
Si       Si0    0.554357     0.873091     0.70631      2.4        
O        O0     0.551107     0.73391      0.652787    -1.2        
Si       Si0    0.542118     0.693498     0.616175     2.4        
O        O0     0.614737     0.692656     0.487529    -1.2        
Al       Al0    0.788697     0.944367     0.857549     1.4        
O        O0     0.870906     0.943817     0.73468     -1.2        
Si       Si0    0.955335     0.693067     0.875954     2.4        
O        O0     0.892323     0.683799     1.00711     -1.2        
Al       Al0    0.710756     0.942981     0.639935     1.4        
O        O0     0.632672     0.945993     0.765       -1.2        
Si       Si0    0.541366     0.81296      0.881977     2.4        
O        O0     0.613857     0.811529     1.00855     -1.2        
Al       Al0    0.791501     0.562672     0.636802     1.4        
O        O0     0.875266     0.559651     0.760288    -1.2        
Si       Si0    0.956213     0.81119      0.614628     2.4        
O        O0     0.888781     0.81487      0.487188    -1.2        
Al       Al0    0.710371     0.562129     0.859164     1.4        
O        O0     0.636995     0.555569     0.733541    -1.2        
Si       Si0    0.537973     0.610581     0.684298     2.4        
O        O0     0.610908     0.486705     0.685817    -1.2        
Si       Si0    0.793019     0.869717     0.939703     2.4        
O        O0     0.854975     0.735107     0.950513    -1.2        
Si       Si0    0.959355     0.891781     0.684163     2.4        
O        O0     0.885804     1.0152       0.684858    -1.2        
Si       Si0    0.711708     0.637703     0.937792     2.4        
O        O0     0.642183     0.764772     0.936113    -1.2        
Si       Si0    0.535971     0.894812     0.814055     2.4        
O        O0     0.610056     1.01472      0.811544    -1.2        
Si       Si0    0.793359     0.634369     0.556357     2.4        
O        O0     0.861241     0.765831     0.551485    -1.2        
Si       Si0    0.958633     0.612096     0.810495     2.4        
O        O0     0.889854     0.485943     0.806819    -1.2        
Si       Si0    0.707861     0.868041     0.55908      2.4        
O        O0     0.645864     0.73946      0.555124    -1.2        
Si       Si0    0.621533     0.693565     0.543752     2.4        
O        O0     0.491058     0.6995       0.601287    -1.2        
Si       Si0    0.86776      0.941989     0.791143     2.4        
O        O0     0.728085     0.940898     0.838519    -1.2        
Si       Si0    0.883175     0.689815     0.952335     2.4        
O        O0     1.00742      0.693793     0.88481     -1.2        
Si       Si0    0.63326      0.940283     0.709262     2.4        
O        O0     0.766432     0.943118     0.656731    -1.2        
Si       Si0    0.883088     0.815211     0.541496     2.4        
O        O0     1.00862      0.8081       0.609667    -1.2        
Si       Si0    0.632639     0.562547     0.788601     2.4        
O        O0     0.768893     0.565955     0.836127    -1.2        
Si       Si0    0.620408     0.813027     0.952293     2.4        
O        O0     0.489738     0.806939     0.899214    -1.2        
Si       Si0    0.868507     0.560638     0.704763     2.4        
O        O0     0.736526     0.567085     0.647024    -1.2        
Si       Si0    0.695249     0.545106     0.61772      2.4        
O        O0     0.695012     0.612827     0.487025    -1.2        
Si       Si0    0.942453     0.794598     0.861059     2.4        
O        O0     0.945735     0.876557     0.73483     -1.2        
Si       Si0    0.6925       0.959102     0.876279     2.4        
O        O0     0.693977     0.896659     1.01128     -1.2        
Si       Si0    0.943964     0.710653     0.630635     2.4        
O        O0     0.944699     0.627541     0.758669    -1.2        
Si       Si0    0.807375     0.548091     0.872449     2.4        
O        O0     0.811733     0.612636     1.0073      -1.2        
Al       Al0    0.557757     0.793311     0.636015     1.4        
O        O0     0.549821     0.876103     0.762415    -1.2        
Si       Si0    0.805991     0.958163     0.62278      2.4        
O        O0     0.804848     0.891395     0.487512    -1.2        
Al       Al0    0.556098     0.710455     0.863868     1.4        
O        O0     0.550732     0.634044     0.732807    -1.2        
O        O0     0.56933      0.566317     0.679755    -1.2        
O        O0     0.601189     0.605976     0.797963    -1.2        
O        O0     0.816374     0.821151     0.943482    -1.2        
O        O0     0.847402     0.854744     0.557063    -1.2        
O        O0     0.934172     0.938477     0.672003    -1.2        
O        O0     0.893233     0.899092     0.810786    -1.2        
O        O0     0.683805     0.685233     0.931795    -1.2        
O        O0     0.654281     0.651878     0.558514    -1.2        
O        O0     0.934473     0.565327     0.821802    -1.2        
O        O0     0.892985     0.603211     0.679802    -1.2        
O        O0     0.681351     0.821634     0.563623    -1.2        
O        O0     0.654796     0.85351      0.940542    -1.2        
O        O0     0.565628     0.938703     0.821334    -1.2        
O        O0     0.601377     0.900574     0.692936    -1.2        
O        O0     0.814892     0.684406     0.555553    -1.2        
O        O0     0.850376     0.650553     0.936403    -1.2        
O        O0     0.68985      0.568524     0.568209    -1.2        
O        O0     0.813692     0.604599     0.599026    -1.2        
O        O0     0.950307     0.819847     0.81215     -1.2        
O        O0     0.547977     0.856824     0.851096    -1.2        
O        O0     0.696595     0.933036     0.924903    -1.2        
O        O0     0.798077     0.899978     0.89465     -1.2        
O        O0     0.94322      0.683924     0.678523    -1.2        
O        O0     0.54782      0.647004     0.644838    -1.2        
O        O0     0.804786     0.930876     0.573402    -1.2        
O        O0     0.699639     0.90145      0.601546    -1.2        
O        O0     0.554458     0.683087     0.808249    -1.2        
O        O0     0.941833     0.650439     0.845543    -1.2        
O        O0     0.805916     0.57596      0.921361    -1.2        
O        O0     0.704146     0.606252     0.895018    -1.2        
O        O0     0.552132     0.823702     0.687857    -1.2        
O        O0     0.946745     0.852717     0.649099    -1.2        
O        O0     0.575052     0.694749     0.572757    -1.2        
O        O0     0.606035     0.800269     0.605623    -1.2        
O        O0     0.814703     0.943367     0.801243    -1.2        
O        O0     0.852775     0.555598     0.846153    -1.2        
O        O0     0.927145     0.692682     0.923462    -1.2        
O        O0     0.898039     0.802051     0.889524    -1.2        
O        O0     0.684463     0.932681     0.695677    -1.2        
O        O0     0.651027     0.554166     0.645577    -1.2        
O        O0     0.571325     0.818643     0.928891    -1.2        
O        O0     0.603056     0.698495     0.896121    -1.2        
O        O0     0.816813     0.566127     0.694576    -1.2        
O        O0     0.850479     0.944593     0.64811     -1.2        
O        O0     0.92905      0.819511     0.567922    -1.2        
O        O0     0.903081     0.691345     0.600468    -1.2        
O        O0     0.683671     0.569569     0.804919    -1.2        
O        O0     0.646279     0.947844     0.854419    -1.2        
